
**************************************************************************************************
OpenFAST

Copyright (C) 2025 National Renewable Energy Laboratory
Copyright (C) 2025 Envision Energy USA LTD

This program is licensed under Apache License Version 2.0 and comes with ABSOLUTELY NO WARRANTY.
See the "LICENSE" file distributed with this software for details.
**************************************************************************************************

OpenFAST-v4.1.2
Compile Info:
 - Compiler: Intel(R) Fortran Compiler 2021
 - Architecture: 64 bit
 - Precision: single
 - OpenMP: No
 - Date: Aug 06 2025
 - Time: 19:22:48
Execution Info:
 - Date: 05/03/2026
 - Time: 14:06:08-0700

OpenFAST input file heading:
    Generated with OpenFAST_IO

 Running ElastoDyn.
 Running SeaState.
  WaveTMax is less then the simulation time.  Wave data will repeat every WaveTMax seconds.
 Generating incident wave kinematics and current time history.
 Running HydroDyn.
 Reading in WAMIT output with root name
 "C:\Users\xlama\OneDrive\Documents\buoy\HSP_code\tests\fixtures\openfast\oc4_deepcwind\baseline\5
 MW_Baseline\HydroData\marin_semi".
 Computing radiation impulse response functions and wave diffraction forces.

FAST_InitializeAll:ED_Init:ED_ReadInput:ReadBladeInputs:ReadBladeFile:The ElastoDyn Blade file,
.\s3_rao_sweep_WaveTp_005p0_ElastoDynBlade.dat, DISTRIBUTED BLADE PROPERTIES table contains the
PitchAxis column.  This column is unused and will be removed in future releases

 Time: 0 of 1200 seconds.                                                                                                   Time: 1 of 1200 seconds.  Estimated final completion at 14:10:23 (in 0.003 days).                                                                                                   Time: 2 of 1200 seconds.  Estimated final completion at 14:10:13 (in 0.003 days).                                                                                                   Time: 3 of 1200 seconds.  Estimated final completion at 14:10:04 (in 0.003 days).                                                                                                   Time: 4 of 1200 seconds.  Estimated final completion at 14:10:04 (in 0.003 days).                                                                                                   Time: 5 of 1200 seconds.  Estimated final completion at 14:09:59 (in 0.003 days).                                                                                                   Time: 6 of 1200 seconds.  Estimated final completion at 14:09:59 (in 0.003 days).                                                                                                   Time: 7 of 1200 seconds.  Estimated final completion at 14:09:54 (in 0.003 days).                                                                                                   Time: 8 of 1200 seconds.  Estimated final completion at 14:09:54 (in 0.003 days).                                                                                                   Time: 9 of 1200 seconds.  Estimated final completion at 14:09:54 (in 0.003 days).                                                                                                   Time: 10 of 1200 seconds.  Estimated final completion at 14:10:04 (in 0.003 days).                                                                                                   Time: 11 of 1200 seconds.  Estimated final completion at 14:10:04 (in 0.003 days).                                                                                                   Time: 12 of 1200 seconds.  Estimated final completion at 14:09:59 (in 0.003 days).                                                                                                   Time: 13 of 1200 seconds.  Estimated final completion at 14:10:04 (in 0.003 days).                                                                                                   Time: 14 of 1200 seconds.  Estimated final completion at 14:09:59 (in 0.003 days).                                                                                                   Time: 15 of 1200 seconds.  Estimated final completion at 14:09:59 (in 0.003 days).                                                                                                   Time: 16 of 1200 seconds.  Estimated final completion at 14:09:55 (in 0.003 days).                                                                                                   Time: 17 of 1200 seconds.  Estimated final completion at 14:09:59 (in 0.003 days).                                                                                                   Time: 18 of 1200 seconds.  Estimated final completion at 14:09:59 (in 0.003 days).                                                                                                   Time: 19 of 1200 seconds.  Estimated final completion at 14:09:59 (in 0.003 days).                                                                                                   Time: 20 of 1200 seconds.  Estimated final completion at 14:09:59 (in 0.003 days).                                                                                                   Time: 21 of 1200 seconds.  Estimated final completion at 14:09:59 (in 0.003 days).                                                                                                   Time: 22 of 1200 seconds.  Estimated final completion at 14:10:08 (in 0.003 days).                                                                                                   Time: 23 of 1200 seconds.  Estimated final completion at 14:10:08 (in 0.003 days).                                                                                                   Time: 24 of 1200 seconds.  Estimated final completion at 14:09:55 (in 0.003 days).                                                                                                   Time: 25 of 1200 seconds.  Estimated final completion at 14:09:59 (in 0.003 days).                                                                                                   Time: 26 of 1200 seconds.  Estimated final completion at 14:09:59 (in 0.003 days).                                                                                                   Time: 27 of 1200 seconds.  Estimated final completion at 14:09:50 (in 0.002 days).                                                                                                   Time: 28 of 1200 seconds.  Estimated final completion at 14:09:55 (in 0.003 days).                                                                                                   Time: 29 of 1200 seconds.  Estimated final completion at 14:10:04 (in 0.003 days).                                                                                                   Time: 30 of 1200 seconds.  Estimated final completion at 14:09:59 (in 0.003 days).                                                                                                   Time: 31 of 1200 seconds.  Estimated final completion at 14:10:04 (in 0.003 days).                                                                                                   Time: 32 of 1200 seconds.  Estimated final completion at 14:09:59 (in 0.003 days).                                                                                                   Time: 33 of 1200 seconds.  Estimated final completion at 14:10:08 (in 0.003 days).                                                                                                   Time: 34 of 1200 seconds.  Estimated final completion at 14:09:55 (in 0.003 days).                                                                                                   Time: 35 of 1200 seconds.  Estimated final completion at 14:09:55 (in 0.003 days).                                                                                                   Time: 36 of 1200 seconds.  Estimated final completion at 14:09:59 (in 0.003 days).                                                                                                   Time: 37 of 1200 seconds.  Estimated final completion at 14:09:55 (in 0.003 days).                                                                                                   Time: 38 of 1200 seconds.  Estimated final completion at 14:09:55 (in 0.003 days).                                                                                                   Time: 39 of 1200 seconds.  Estimated final completion at 14:09:59 (in 0.003 days).                                                                                                   Time: 40 of 1200 seconds.  Estimated final completion at 14:09:55 (in 0.003 days).                                                                                                   Time: 41 of 1200 seconds.  Estimated final completion at 14:09:59 (in 0.003 days).                                                                                                   Time: 42 of 1200 seconds.  Estimated final completion at 14:09:55 (in 0.003 days).                                                                                                   Time: 43 of 1200 seconds.  Estimated final completion at 14:10:04 (in 0.003 days).                                                                                                   Time: 44 of 1200 seconds.  Estimated final completion at 14:10:04 (in 0.003 days).                                                                                                   Time: 45 of 1200 seconds.  Estimated final completion at 14:09:55 (in 0.003 days).                                                                                                   Time: 46 of 1200 seconds.  Estimated final completion at 14:09:55 (in 0.003 days).                                                                                                   Time: 47 of 1200 seconds.  Estimated final completion at 14:10:08 (in 0.003 days).                                                                                                   Time: 48 of 1200 seconds.  Estimated final completion at 14:10:08 (in 0.003 days).                                                                                                   Time: 49 of 1200 seconds.  Estimated final completion at 14:10:13 (in 0.003 days).                                                                                                   Time: 50 of 1200 seconds.  Estimated final completion at 14:10:08 (in 0.003 days).                                                                                                   Time: 51 of 1200 seconds.  Estimated final completion at 14:10:04 (in 0.003 days).                                                                                                   Time: 52 of 1200 seconds.  Estimated final completion at 14:09:59 (in 0.003 days).                                                                                                   Time: 53 of 1200 seconds.  Estimated final completion at 14:09:59 (in 0.003 days).                                                                                                   Time: 54 of 1200 seconds.  Estimated final completion at 14:09:59 (in 0.003 days).                                                                                                   Time: 55 of 1200 seconds.  Estimated final completion at 14:10:08 (in 0.003 days).                                                                                                   Time: 56 of 1200 seconds.  Estimated final completion at 14:09:59 (in 0.003 days).                                                                                                   Time: 57 of 1200 seconds.  Estimated final completion at 14:09:59 (in 0.003 days).                                                                                                   Time: 58 of 1200 seconds.  Estimated final completion at 14:10:08 (in 0.003 days).                                                                                                   Time: 59 of 1200 seconds.  Estimated final completion at 14:10:13 (in 0.003 days).                                                                                                   Time: 60 of 1200 seconds.  Estimated final completion at 14:10:08 (in 0.003 days).                                                                                                   Time: 61 of 1200 seconds.  Estimated final completion at 14:10:13 (in 0.003 days).                                                                                                   Time: 62 of 1200 seconds.  Estimated final completion at 14:10:08 (in 0.003 days).                                                                                                   Time: 63 of 1200 seconds.  Estimated final completion at 14:10:08 (in 0.003 days).                                                                                                   Time: 64 of 1200 seconds.  Estimated final completion at 14:10:13 (in 0.003 days).                                                                                                   Time: 65 of 1200 seconds.  Estimated final completion at 14:10:13 (in 0.003 days).                                                                                                   Time: 66 of 1200 seconds.  Estimated final completion at 14:10:08 (in 0.003 days).                                                                                                   Time: 67 of 1200 seconds.  Estimated final completion at 14:10:13 (in 0.003 days).                                                                                                   Time: 68 of 1200 seconds.  Estimated final completion at 14:10:13 (in 0.003 days).                                                                                                   Time: 69 of 1200 seconds.  Estimated final completion at 14:10:13 (in 0.003 days).                                                                                                   Time: 70 of 1200 seconds.  Estimated final completion at 14:10:08 (in 0.003 days).                                                                                                   Time: 71 of 1200 seconds.  Estimated final completion at 14:10:13 (in 0.003 days).                                                                                                   Time: 72 of 1200 seconds.  Estimated final completion at 14:09:59 (in 0.002 days).                                                                                                   Time: 73 of 1200 seconds.  Estimated final completion at 14:09:59 (in 0.002 days).                                                                                                   Time: 74 of 1200 seconds.  Estimated final completion at 14:10:04 (in 0.003 days).                                                                                                   Time: 75 of 1200 seconds.  Estimated final completion at 14:10:04 (in 0.003 days).                                                                                                   Time: 76 of 1200 seconds.  Estimated final completion at 14:09:55 (in 0.002 days).                                                                                                   Time: 77 of 1200 seconds.  Estimated final completion at 14:10:04 (in 0.003 days).                                                                                                   Time: 78 of 1200 seconds.  Estimated final completion at 14:09:59 (in 0.002 days).                                                                                                   Time: 79 of 1200 seconds.  Estimated final completion at 14:09:59 (in 0.002 days).                                                                                                   Time: 80 of 1200 seconds.  Estimated final completion at 14:10:17 (in 0.003 days).                                                                                                   Time: 81 of 1200 seconds.  Estimated final completion at 14:09:59 (in 0.002 days).                                                                                                   Time: 82 of 1200 seconds.  Estimated final completion at 14:09:59 (in 0.002 days).                                                                                                   Time: 83 of 1200 seconds.  Estimated final completion at 14:10:04 (in 0.003 days).                                                                                                   Time: 84 of 1200 seconds.  Estimated final completion at 14:10:04 (in 0.003 days).                                                                                                   Time: 85 of 1200 seconds.  Estimated final completion at 14:09:59 (in 0.002 days).                                                                                                   Time: 86 of 1200 seconds.  Estimated final completion at 14:09:59 (in 0.002 days).                                                                                                   Time: 87 of 1200 seconds.  Estimated final completion at 14:09:59 (in 0.002 days).                                                                                                   Time: 88 of 1200 seconds.  Estimated final completion at 14:10:04 (in 0.003 days).                                                                                                   Time: 89 of 1200 seconds.  Estimated final completion at 14:09:59 (in 0.002 days).                                                                                                   Time: 90 of 1200 seconds.  Estimated final completion at 14:09:59 (in 0.002 days).                                                                                                   Time: 91 of 1200 seconds.  Estimated final completion at 14:10:04 (in 0.003 days).                                                                                                   Time: 92 of 1200 seconds.  Estimated final completion at 14:10:04 (in 0.003 days).                                                                                                   Time: 93 of 1200 seconds.  Estimated final completion at 14:09:59 (in 0.002 days).                                                                                                   Time: 94 of 1200 seconds.  Estimated final completion at 14:10:04 (in 0.003 days).                                                                                                   Time: 95 of 1200 seconds.  Estimated final completion at 14:09:59 (in 0.002 days).                                                                                                   Time: 96 of 1200 seconds.  Estimated final completion at 14:09:59 (in 0.002 days).                                                                                                   Time: 97 of 1200 seconds.  Estimated final completion at 14:10:04 (in 0.002 days).                                                                                                   Time: 98 of 1200 seconds.  Estimated final completion at 14:10:04 (in 0.002 days).                                                                                                   Time: 99 of 1200 seconds.  Estimated final completion at 14:09:59 (in 0.002 days).                                                                                                   Time: 100 of 1200 seconds.  Estimated final completion at 14:09:59 (in 0.002 days).                                                                                                   Time: 101 of 1200 seconds.  Estimated final completion at 14:10:04 (in 0.002 days).                                                                                                   Time: 102 of 1200 seconds.  Estimated final completion at 14:09:59 (in 0.002 days).                                                                                                   Time: 103 of 1200 seconds.  Estimated final completion at 14:10:04 (in 0.002 days).                                                                                                   Time: 104 of 1200 seconds.  Estimated final completion at 14:10:04 (in 0.002 days).                                                                                                   Time: 105 of 1200 seconds.  Estimated final completion at 14:10:04 (in 0.002 days).                                                                                                   Time: 106 of 1200 seconds.  Estimated final completion at 14:09:59 (in 0.002 days).                                                                                                   Time: 107 of 1200 seconds.  Estimated final completion at 14:09:59 (in 0.002 days).                                                                                                   Time: 108 of 1200 seconds.  Estimated final completion at 14:09:59 (in 0.002 days).                                                                                                   Time: 109 of 1200 seconds.  Estimated final completion at 14:09:59 (in 0.002 days).                                                                                                   Time: 110 of 1200 seconds.  Estimated final completion at 14:09:59 (in 0.002 days).                                                                                                   Time: 111 of 1200 seconds.  Estimated final completion at 14:10:04 (in 0.002 days).                                                                                                   Time: 112 of 1200 seconds.  Estimated final completion at 14:09:59 (in 0.002 days).                                                                                                   Time: 113 of 1200 seconds.  Estimated final completion at 14:09:59 (in 0.002 days).                                                                                                   Time: 114 of 1200 seconds.  Estimated final completion at 14:09:59 (in 0.002 days).                                                                                                   Time: 115 of 1200 seconds.  Estimated final completion at 14:10:04 (in 0.002 days).                                                                                                   Time: 116 of 1200 seconds.  Estimated final completion at 14:09:59 (in 0.002 days).                                                                                                   Time: 117 of 1200 seconds.  Estimated final completion at 14:09:59 (in 0.002 days).                                                                                                   Time: 118 of 1200 seconds.  Estimated final completion at 14:10:04 (in 0.002 days).                                                                                                   Time: 119 of 1200 seconds.  Estimated final completion at 14:10:04 (in 0.002 days).                                                                                                   Time: 120 of 1200 seconds.  Estimated final completion at 14:10:04 (in 0.002 days).                                                                                                   Time: 121 of 1200 seconds.  Estimated final completion at 14:09:59 (in 0.002 days).                                                                                                   Time: 122 of 1200 seconds.  Estimated final completion at 14:10:04 (in 0.002 days).                                                                                                   Time: 123 of 1200 seconds.  Estimated final completion at 14:09:55 (in 0.002 days).                                                                                                   Time: 124 of 1200 seconds.  Estimated final completion at 14:10:04 (in 0.002 days).                                                                                                   Time: 125 of 1200 seconds.  Estimated final completion at 14:09:59 (in 0.002 days).                                                                                                   Time: 126 of 1200 seconds.  Estimated final completion at 14:09:59 (in 0.002 days).                                                                                                   Time: 127 of 1200 seconds.  Estimated final completion at 14:10:04 (in 0.002 days).                                                                                                   Time: 128 of 1200 seconds.  Estimated final completion at 14:10:04 (in 0.002 days).                                                                                                   Time: 129 of 1200 seconds.  Estimated final completion at 14:09:59 (in 0.002 days).                                                                                                   Time: 130 of 1200 seconds.  Estimated final completion at 14:10:08 (in 0.002 days).                                                                                                   Time: 131 of 1200 seconds.  Estimated final completion at 14:10:04 (in 0.002 days).                                                                                                   Time: 132 of 1200 seconds.  Estimated final completion at 14:10:04 (in 0.002 days).                                                                                                   Time: 133 of 1200 seconds.  Estimated final completion at 14:10:04 (in 0.002 days).                                                                                                   Time: 134 of 1200 seconds.  Estimated final completion at 14:09:59 (in 0.002 days).                                                                                                   Time: 135 of 1200 seconds.  Estimated final completion at 14:10:04 (in 0.002 days).                                                                                                   Time: 136 of 1200 seconds.  Estimated final completion at 14:10:04 (in 0.002 days).                                                                                                   Time: 137 of 1200 seconds.  Estimated final completion at 14:10:08 (in 0.002 days).                                                                                                   Time: 138 of 1200 seconds.  Estimated final completion at 14:10:12 (in 0.002 days).                                                                                                   Time: 139 of 1200 seconds.  Estimated final completion at 14:10:08 (in 0.002 days).                                                                                                   Time: 140 of 1200 seconds.  Estimated final completion at 14:10:12 (in 0.002 days).                                                                                                   Time: 141 of 1200 seconds.  Estimated final completion at 14:10:08 (in 0.002 days).                                                                                                   Time: 142 of 1200 seconds.  Estimated final completion at 14:10:12 (in 0.002 days).                                                                                                   Time: 143 of 1200 seconds.  Estimated final completion at 14:10:08 (in 0.002 days).                                                                                                   Time: 144 of 1200 seconds.  Estimated final completion at 14:10:08 (in 0.002 days).                                                                                                   Time: 145 of 1200 seconds.  Estimated final completion at 14:10:12 (in 0.002 days).                                                                                                   Time: 146 of 1200 seconds.  Estimated final completion at 14:10:12 (in 0.002 days).                                                                                                   Time: 147 of 1200 seconds.  Estimated final completion at 14:10:08 (in 0.002 days).                                                                                                   Time: 148 of 1200 seconds.  Estimated final completion at 14:10:04 (in 0.002 days).                                                                                                   Time: 149 of 1200 seconds.  Estimated final completion at 14:09:60 (in 0.002 days).                                                                                                   Time: 150 of 1200 seconds.  Estimated final completion at 14:10:12 (in 0.002 days).                                                                                                   Time: 151 of 1200 seconds.  Estimated final completion at 14:10:12 (in 0.002 days).                                                                                                   Time: 152 of 1200 seconds.  Estimated final completion at 14:10:12 (in 0.002 days).                                                                                                   Time: 153 of 1200 seconds.  Estimated final completion at 14:10:08 (in 0.002 days).                                                                                                   Time: 154 of 1200 seconds.  Estimated final completion at 14:10:08 (in 0.002 days).                                                                                                   Time: 155 of 1200 seconds.  Estimated final completion at 14:10:04 (in 0.002 days).                                                                                                   Time: 156 of 1200 seconds.  Estimated final completion at 14:10:04 (in 0.002 days).                                                                                                   Time: 157 of 1200 seconds.  Estimated final completion at 14:09:60 (in 0.002 days).                                                                                                   Time: 158 of 1200 seconds.  Estimated final completion at 14:10:04 (in 0.002 days).                                                                                                   Time: 159 of 1200 seconds.  Estimated final completion at 14:09:60 (in 0.002 days).                                                                                                   Time: 160 of 1200 seconds.  Estimated final completion at 14:10:12 (in 0.002 days).                                                                                                   Time: 161 of 1200 seconds.  Estimated final completion at 14:09:60 (in 0.002 days).                                                                                                   Time: 162 of 1200 seconds.  Estimated final completion at 14:10:04 (in 0.002 days).                                                                                                   Time: 163 of 1200 seconds.  Estimated final completion at 14:10:04 (in 0.002 days).                                                                                                   Time: 164 of 1200 seconds.  Estimated final completion at 14:09:60 (in 0.002 days).                                                                                                   Time: 165 of 1200 seconds.  Estimated final completion at 14:10:04 (in 0.002 days).                                                                                                   Time: 166 of 1200 seconds.  Estimated final completion at 14:09:60 (in 0.002 days).                                                                                                   Time: 167 of 1200 seconds.  Estimated final completion at 14:10:04 (in 0.002 days).                                                                                                   Time: 168 of 1200 seconds.  Estimated final completion at 14:09:60 (in 0.002 days).                                                                                                   Time: 169 of 1200 seconds.  Estimated final completion at 14:09:60 (in 0.002 days).                                                                                                   Time: 170 of 1200 seconds.  Estimated final completion at 14:09:60 (in 0.002 days).                                                                                                   Time: 171 of 1200 seconds.  Estimated final completion at 14:09:60 (in 0.002 days).                                                                                                   Time: 172 of 1200 seconds.  Estimated final completion at 14:10:04 (in 0.002 days).                                                                                                   Time: 173 of 1200 seconds.  Estimated final completion at 14:10:04 (in 0.002 days).                                                                                                   Time: 174 of 1200 seconds.  Estimated final completion at 14:10:04 (in 0.002 days).                                                                                                   Time: 175 of 1200 seconds.  Estimated final completion at 14:09:60 (in 0.002 days).                                                                                                   Time: 176 of 1200 seconds.  Estimated final completion at 14:10:28 (in 0.003 days).                                                                                                   Time: 177 of 1200 seconds.  Estimated final completion at 14:09:60 (in 0.002 days).                                                                                                   Time: 178 of 1200 seconds.  Estimated final completion at 14:09:60 (in 0.002 days).                                                                                                   Time: 179 of 1200 seconds.  Estimated final completion at 14:09:60 (in 0.002 days).                                                                                                   Time: 180 of 1200 seconds.  Estimated final completion at 14:09:60 (in 0.002 days).                                                                                                   Time: 181 of 1200 seconds.  Estimated final completion at 14:09:60 (in 0.002 days).                                                                                                   Time: 182 of 1200 seconds.  Estimated final completion at 14:10:04 (in 0.002 days).                                                                                                   Time: 183 of 1200 seconds.  Estimated final completion at 14:09:60 (in 0.002 days).                                                                                                   Time: 184 of 1200 seconds.  Estimated final completion at 14:10:04 (in 0.002 days).                                                                                                   Time: 185 of 1200 seconds.  Estimated final completion at 14:10:12 (in 0.002 days).                                                                                                   Time: 186 of 1200 seconds.  Estimated final completion at 14:09:56 (in 0.002 days).                                                                                                   Time: 187 of 1200 seconds.  Estimated final completion at 14:10:04 (in 0.002 days).                                                                                                   Time: 188 of 1200 seconds.  Estimated final completion at 14:10:04 (in 0.002 days).                                                                                                   Time: 189 of 1200 seconds.  Estimated final completion at 14:09:60 (in 0.002 days).                                                                                                   Time: 190 of 1200 seconds.  Estimated final completion at 14:10:04 (in 0.002 days).                                                                                                   Time: 191 of 1200 seconds.  Estimated final completion at 14:09:60 (in 0.002 days).                                                                                                   Time: 192 of 1200 seconds.  Estimated final completion at 14:10:04 (in 0.002 days).                                                                                                   Time: 193 of 1200 seconds.  Estimated final completion at 14:10:12 (in 0.002 days).                                                                                                   Time: 194 of 1200 seconds.  Estimated final completion at 14:10:12 (in 0.002 days).                                                                                                   Time: 195 of 1200 seconds.  Estimated final completion at 14:10:12 (in 0.002 days).                                                                                                   Time: 196 of 1200 seconds.  Estimated final completion at 14:10:08 (in 0.002 days).                                                                                                   Time: 197 of 1200 seconds.  Estimated final completion at 14:10:04 (in 0.002 days).                                                                                                   Time: 198 of 1200 seconds.  Estimated final completion at 14:10:08 (in 0.002 days).                                                                                                   Time: 199 of 1200 seconds.  Estimated final completion at 14:10:04 (in 0.002 days).                                                                                                   Time: 200 of 1200 seconds.  Estimated final completion at 14:10:04 (in 0.002 days).                                                                                                   Time: 201 of 1200 seconds.  Estimated final completion at 14:09:60 (in 0.002 days).                                                                                                   Time: 202 of 1200 seconds.  Estimated final completion at 14:09:60 (in 0.002 days).                                                                                                   Time: 203 of 1200 seconds.  Estimated final completion at 14:10:04 (in 0.002 days).                                                                                                   Time: 204 of 1200 seconds.  Estimated final completion at 14:10:04 (in 0.002 days).                                                                                                   Time: 205 of 1200 seconds.  Estimated final completion at 14:10:08 (in 0.002 days).                                                                                                   Time: 206 of 1200 seconds.  Estimated final completion at 14:10:08 (in 0.002 days).                                                                                                   Time: 207 of 1200 seconds.  Estimated final completion at 14:09:56 (in 0.002 days).                                                                                                   Time: 208 of 1200 seconds.  Estimated final completion at 14:09:60 (in 0.002 days).                                                                                                   Time: 209 of 1200 seconds.  Estimated final completion at 14:10:08 (in 0.002 days).                                                                                                   Time: 210 of 1200 seconds.  Estimated final completion at 14:09:60 (in 0.002 days).                                                                                                   Time: 211 of 1200 seconds.  Estimated final completion at 14:10:04 (in 0.002 days).                                                                                                   Time: 212 of 1200 seconds.  Estimated final completion at 14:09:60 (in 0.002 days).                                                                                                   Time: 213 of 1200 seconds.  Estimated final completion at 14:09:60 (in 0.002 days).                                                                                                   Time: 214 of 1200 seconds.  Estimated final completion at 14:09:60 (in 0.002 days).                                                                                                   Time: 215 of 1200 seconds.  Estimated final completion at 14:10:08 (in 0.002 days).                                                                                                   Time: 216 of 1200 seconds.  Estimated final completion at 14:09:60 (in 0.002 days).                                                                                                   Time: 217 of 1200 seconds.  Estimated final completion at 14:10:04 (in 0.002 days).                                                                                                   Time: 218 of 1200 seconds.  Estimated final completion at 14:10:04 (in 0.002 days).                                                                                                   Time: 219 of 1200 seconds.  Estimated final completion at 14:09:60 (in 0.002 days).                                                                                                   Time: 220 of 1200 seconds.  Estimated final completion at 14:10:04 (in 0.002 days).                                                                                                   Time: 221 of 1200 seconds.  Estimated final completion at 14:10:04 (in 0.002 days).                                                                                                   Time: 222 of 1200 seconds.  Estimated final completion at 14:10:04 (in 0.002 days).                                                                                                   Time: 223 of 1200 seconds.  Estimated final completion at 14:09:60 (in 0.002 days).                                                                                                   Time: 224 of 1200 seconds.  Estimated final completion at 14:09:60 (in 0.002 days).                                                                                                   Time: 225 of 1200 seconds.  Estimated final completion at 14:10:07 (in 0.002 days).                                                                                                   Time: 226 of 1200 seconds.  Estimated final completion at 14:10:04 (in 0.002 days).                                                                                                   Time: 227 of 1200 seconds.  Estimated final completion at 14:10:07 (in 0.002 days).                                                                                                   Time: 228 of 1200 seconds.  Estimated final completion at 14:10:04 (in 0.002 days).                                                                                                   Time: 229 of 1200 seconds.  Estimated final completion at 14:10:04 (in 0.002 days).                                                                                                   Time: 230 of 1200 seconds.  Estimated final completion at 14:10:04 (in 0.002 days).                                                                                                   Time: 231 of 1200 seconds.  Estimated final completion at 14:09:56 (in 0.002 days).                                                                                                   Time: 232 of 1200 seconds.  Estimated final completion at 14:09:60 (in 0.002 days).                                                                                                   Time: 233 of 1200 seconds.  Estimated final completion at 14:10:07 (in 0.002 days).                                                                                                   Time: 234 of 1200 seconds.  Estimated final completion at 14:09:56 (in 0.002 days).                                                                                                   Time: 235 of 1200 seconds.  Estimated final completion at 14:10:04 (in 0.002 days).                                                                                                   Time: 236 of 1200 seconds.  Estimated final completion at 14:09:60 (in 0.002 days).                                                                                                   Time: 237 of 1200 seconds.  Estimated final completion at 14:09:60 (in 0.002 days).                                                                                                   Time: 238 of 1200 seconds.  Estimated final completion at 14:09:60 (in 0.002 days).                                                                                                   Time: 239 of 1200 seconds.  Estimated final completion at 14:09:60 (in 0.002 days).                                                                                                   Time: 240 of 1200 seconds.  Estimated final completion at 14:09:60 (in 0.002 days).                                                                                                   Time: 241 of 1200 seconds.  Estimated final completion at 14:09:60 (in 0.002 days).                                                                                                   Time: 242 of 1200 seconds.  Estimated final completion at 14:09:60 (in 0.002 days).                                                                                                   Time: 243 of 1200 seconds.  Estimated final completion at 14:09:60 (in 0.002 days).                                                                                                   Time: 244 of 1200 seconds.  Estimated final completion at 14:10:04 (in 0.002 days).                                                                                                   Time: 245 of 1200 seconds.  Estimated final completion at 14:09:60 (in 0.002 days).                                                                                                   Time: 246 of 1200 seconds.  Estimated final completion at 14:10:04 (in 0.002 days).                                                                                                   Time: 247 of 1200 seconds.  Estimated final completion at 14:09:60 (in 0.002 days).                                                                                                   Time: 248 of 1200 seconds.  Estimated final completion at 14:09:60 (in 0.002 days).                                                                                                   Time: 249 of 1200 seconds.  Estimated final completion at 14:10:04 (in 0.002 days).                                                                                                   Time: 250 of 1200 seconds.  Estimated final completion at 14:10:07 (in 0.002 days).                                                                                                   Time: 251 of 1200 seconds.  Estimated final completion at 14:09:60 (in 0.002 days).                                                                                                   Time: 252 of 1200 seconds.  Estimated final completion at 14:09:60 (in 0.002 days).                                                                                                   Time: 253 of 1200 seconds.  Estimated final completion at 14:10:04 (in 0.002 days).                                                                                                   Time: 254 of 1200 seconds.  Estimated final completion at 14:09:60 (in 0.002 days).                                                                                                   Time: 255 of 1200 seconds.  Estimated final completion at 14:10:04 (in 0.002 days).                                                                                                   Time: 256 of 1200 seconds.  Estimated final completion at 14:10:07 (in 0.002 days).                                                                                                   Time: 257 of 1200 seconds.  Estimated final completion at 14:10:04 (in 0.002 days).                                                                                                   Time: 258 of 1200 seconds.  Estimated final completion at 14:09:60 (in 0.002 days).                                                                                                   Time: 259 of 1200 seconds.  Estimated final completion at 14:09:60 (in 0.002 days).                                                                                                   Time: 260 of 1200 seconds.  Estimated final completion at 14:10:04 (in 0.002 days).                                                                                                   Time: 261 of 1200 seconds.  Estimated final completion at 14:10:04 (in 0.002 days).                                                                                                   Time: 262 of 1200 seconds.  Estimated final completion at 14:09:60 (in 0.002 days).                                                                                                   Time: 263 of 1200 seconds.  Estimated final completion at 14:09:60 (in 0.002 days).                                                                                                   Time: 264 of 1200 seconds.  Estimated final completion at 14:09:60 (in 0.002 days).                                                                                                   Time: 265 of 1200 seconds.  Estimated final completion at 14:09:60 (in 0.002 days).                                                                                                   Time: 266 of 1200 seconds.  Estimated final completion at 14:10:04 (in 0.002 days).                                                                                                   Time: 267 of 1200 seconds.  Estimated final completion at 14:10:04 (in 0.002 days).                                                                                                   Time: 268 of 1200 seconds.  Estimated final completion at 14:09:60 (in 0.002 days).                                                                                                   Time: 269 of 1200 seconds.  Estimated final completion at 14:09:60 (in 0.002 days).                                                                                                   Time: 270 of 1200 seconds.  Estimated final completion at 14:10:04 (in 0.002 days).                                                                                                   Time: 271 of 1200 seconds.  Estimated final completion at 14:09:60 (in 0.002 days).                                                                                                   Time: 272 of 1200 seconds.  Estimated final completion at 14:10:18 (in 0.002 days).                                                                                                   Time: 273 of 1200 seconds.  Estimated final completion at 14:09:60 (in 0.002 days).                                                                                                   Time: 274 of 1200 seconds.  Estimated final completion at 14:09:60 (in 0.002 days).                                                                                                   Time: 275 of 1200 seconds.  Estimated final completion at 14:10:04 (in 0.002 days).                                                                                                   Time: 276 of 1200 seconds.  Estimated final completion at 14:09:60 (in 0.002 days).                                                                                                   Time: 277 of 1200 seconds.  Estimated final completion at 14:10:04 (in 0.002 days).                                                                                                   Time: 278 of 1200 seconds.  Estimated final completion at 14:09:56 (in 0.002 days).                                                                                                   Time: 279 of 1200 seconds.  Estimated final completion at 14:09:60 (in 0.002 days).                                                                                                   Time: 280 of 1200 seconds.  Estimated final completion at 14:10:04 (in 0.002 days).                                                                                                   Time: 281 of 1200 seconds.  Estimated final completion at 14:09:60 (in 0.002 days).                                                                                                   Time: 282 of 1200 seconds.  Estimated final completion at 14:10:04 (in 0.002 days).                                                                                                   Time: 283 of 1200 seconds.  Estimated final completion at 14:10:04 (in 0.002 days).                                                                                                   Time: 284 of 1200 seconds.  Estimated final completion at 14:09:56 (in 0.002 days).                                                                                                   Time: 285 of 1200 seconds.  Estimated final completion at 14:10:07 (in 0.002 days).                                                                                                   Time: 286 of 1200 seconds.  Estimated final completion at 14:10:04 (in 0.002 days).                                                                                                   Time: 287 of 1200 seconds.  Estimated final completion at 14:10:04 (in 0.002 days).                                                                                                   Time: 288 of 1200 seconds.  Estimated final completion at 14:10:04 (in 0.002 days).                                                                                                   Time: 289 of 1200 seconds.  Estimated final completion at 14:09:56 (in 0.002 days).                                                                                                   Time: 290 of 1200 seconds.  Estimated final completion at 14:10:18 (in 0.002 days).                                                                                                   Time: 291 of 1200 seconds.  Estimated final completion at 14:10:07 (in 0.002 days).                                                                                                   Time: 292 of 1200 seconds.  Estimated final completion at 14:10:07 (in 0.002 days).                                                                                                   Time: 293 of 1200 seconds.  Estimated final completion at 14:10:11 (in 0.002 days).                                                                                                   Time: 294 of 1200 seconds.  Estimated final completion at 14:10:07 (in 0.002 days).                                                                                                   Time: 295 of 1200 seconds.  Estimated final completion at 14:10:00 (in 0.002 days).                                                                                                   Time: 296 of 1200 seconds.  Estimated final completion at 14:10:04 (in 0.002 days).                                                                                                   Time: 297 of 1200 seconds.  Estimated final completion at 14:10:00 (in 0.002 days).                                                                                                   Time: 298 of 1200 seconds.  Estimated final completion at 14:10:04 (in 0.002 days).                                                                                                   Time: 299 of 1200 seconds.  Estimated final completion at 14:10:00 (in 0.002 days).                                                                                                   Time: 300 of 1200 seconds.  Estimated final completion at 14:10:00 (in 0.002 days).                                                                                                   Time: 301 of 1200 seconds.  Estimated final completion at 14:10:04 (in 0.002 days).                                                                                                   Time: 302 of 1200 seconds.  Estimated final completion at 14:10:04 (in 0.002 days).                                                                                                   Time: 303 of 1200 seconds.  Estimated final completion at 14:10:04 (in 0.002 days).                                                                                                   Time: 304 of 1200 seconds.  Estimated final completion at 14:10:00 (in 0.002 days).                                                                                                   Time: 305 of 1200 seconds.  Estimated final completion at 14:10:04 (in 0.002 days).                                                                                                   Time: 306 of 1200 seconds.  Estimated final completion at 14:10:00 (in 0.002 days).                                                                                                   Time: 307 of 1200 seconds.  Estimated final completion at 14:10:00 (in 0.002 days).                                                                                                   Time: 308 of 1200 seconds.  Estimated final completion at 14:10:04 (in 0.002 days).                                                                                                   Time: 309 of 1200 seconds.  Estimated final completion at 14:10:00 (in 0.002 days).                                                                                                   Time: 310 of 1200 seconds.  Estimated final completion at 14:10:00 (in 0.002 days).                                                                                                   Time: 311 of 1200 seconds.  Estimated final completion at 14:10:00 (in 0.002 days).                                                                                                   Time: 312 of 1200 seconds.  Estimated final completion at 14:10:04 (in 0.002 days).                                                                                                   Time: 313 of 1200 seconds.  Estimated final completion at 14:10:04 (in 0.002 days).                                                                                                   Time: 314 of 1200 seconds.  Estimated final completion at 14:10:04 (in 0.002 days).                                                                                                   Time: 315 of 1200 seconds.  Estimated final completion at 14:10:00 (in 0.002 days).                                                                                                   Time: 316 of 1200 seconds.  Estimated final completion at 14:10:00 (in 0.002 days).                                                                                                   Time: 317 of 1200 seconds.  Estimated final completion at 14:10:00 (in 0.002 days).                                                                                                   Time: 318 of 1200 seconds.  Estimated final completion at 14:10:00 (in 0.002 days).                                                                                                   Time: 319 of 1200 seconds.  Estimated final completion at 14:10:00 (in 0.002 days).                                                                                                   Time: 320 of 1200 seconds.  Estimated final completion at 14:10:04 (in 0.002 days).                                                                                                   Time: 321 of 1200 seconds.  Estimated final completion at 14:10:00 (in 0.002 days).                                                                                                   Time: 322 of 1200 seconds.  Estimated final completion at 14:10:04 (in 0.002 days).                                                                                                   Time: 323 of 1200 seconds.  Estimated final completion at 14:09:57 (in 0.002 days).                                                                                                   Time: 324 of 1200 seconds.  Estimated final completion at 14:10:00 (in 0.002 days).                                                                                                   Time: 325 of 1200 seconds.  Estimated final completion at 14:09:57 (in 0.002 days).                                                                                                   Time: 326 of 1200 seconds.  Estimated final completion at 14:09:57 (in 0.002 days).                                                                                                   Time: 327 of 1200 seconds.  Estimated final completion at 14:09:57 (in 0.002 days).                                                                                                   Time: 328 of 1200 seconds.  Estimated final completion at 14:10:00 (in 0.002 days).                                                                                                   Time: 329 of 1200 seconds.  Estimated final completion at 14:09:57 (in 0.002 days).                                                                                                   Time: 330 of 1200 seconds.  Estimated final completion at 14:10:00 (in 0.002 days).                                                                                                   Time: 331 of 1200 seconds.  Estimated final completion at 14:10:00 (in 0.002 days).                                                                                                   Time: 332 of 1200 seconds.  Estimated final completion at 14:09:57 (in 0.002 days).                                                                                                   Time: 333 of 1200 seconds.  Estimated final completion at 14:10:00 (in 0.002 days).                                                                                                   Time: 334 of 1200 seconds.  Estimated final completion at 14:10:03 (in 0.002 days).                                                                                                   Time: 335 of 1200 seconds.  Estimated final completion at 14:10:03 (in 0.002 days).                                                                                                   Time: 336 of 1200 seconds.  Estimated final completion at 14:10:00 (in 0.002 days).                                                                                                   Time: 337 of 1200 seconds.  Estimated final completion at 14:10:00 (in 0.002 days).                                                                                                   Time: 338 of 1200 seconds.  Estimated final completion at 14:10:00 (in 0.002 days).                                                                                                   Time: 339 of 1200 seconds.  Estimated final completion at 14:10:03 (in 0.002 days).                                                                                                   Time: 340 of 1200 seconds.  Estimated final completion at 14:10:00 (in 0.002 days).                                                                                                   Time: 341 of 1200 seconds.  Estimated final completion at 14:10:00 (in 0.002 days).                                                                                                   Time: 342 of 1200 seconds.  Estimated final completion at 14:10:00 (in 0.002 days).                                                                                                   Time: 343 of 1200 seconds.  Estimated final completion at 14:10:00 (in 0.002 days).                                                                                                   Time: 344 of 1200 seconds.  Estimated final completion at 14:10:03 (in 0.002 days).                                                                                                   Time: 345 of 1200 seconds.  Estimated final completion at 14:10:03 (in 0.002 days).                                                                                                   Time: 346 of 1200 seconds.  Estimated final completion at 14:10:00 (in 0.002 days).                                                                                                   Time: 347 of 1200 seconds.  Estimated final completion at 14:10:00 (in 0.002 days).                                                                                                   Time: 348 of 1200 seconds.  Estimated final completion at 14:10:03 (in 0.002 days).                                                                                                   Time: 349 of 1200 seconds.  Estimated final completion at 14:09:57 (in 0.002 days).                                                                                                   Time: 350 of 1200 seconds.  Estimated final completion at 14:10:07 (in 0.002 days).                                                                                                   Time: 351 of 1200 seconds.  Estimated final completion at 14:10:03 (in 0.002 days).                                                                                                   Time: 352 of 1200 seconds.  Estimated final completion at 14:10:07 (in 0.002 days).                                                                                                   Time: 353 of 1200 seconds.  Estimated final completion at 14:10:03 (in 0.002 days).                                                                                                   Time: 354 of 1200 seconds.  Estimated final completion at 14:10:00 (in 0.002 days).                                                                                                   Time: 355 of 1200 seconds.  Estimated final completion at 14:10:00 (in 0.002 days).                                                                                                   Time: 356 of 1200 seconds.  Estimated final completion at 14:10:03 (in 0.002 days).                                                                                                   Time: 357 of 1200 seconds.  Estimated final completion at 14:10:00 (in 0.002 days).                                                                                                   Time: 358 of 1200 seconds.  Estimated final completion at 14:10:03 (in 0.002 days).                                                                                                   Time: 359 of 1200 seconds.  Estimated final completion at 14:10:00 (in 0.002 days).                                                                                                   Time: 360 of 1200 seconds.  Estimated final completion at 14:10:00 (in 0.002 days).                                                                                                   Time: 361 of 1200 seconds.  Estimated final completion at 14:10:03 (in 0.002 days).                                                                                                   Time: 362 of 1200 seconds.  Estimated final completion at 14:10:00 (in 0.002 days).                                                                                                   Time: 363 of 1200 seconds.  Estimated final completion at 14:09:57 (in 0.002 days).                                                                                                   Time: 364 of 1200 seconds.  Estimated final completion at 14:10:00 (in 0.002 days).                                                                                                   Time: 365 of 1200 seconds.  Estimated final completion at 14:10:00 (in 0.002 days).                                                                                                   Time: 366 of 1200 seconds.  Estimated final completion at 14:10:07 (in 0.002 days).                                                                                                   Time: 367 of 1200 seconds.  Estimated final completion at 14:10:00 (in 0.002 days).                                                                                                   Time: 368 of 1200 seconds.  Estimated final completion at 14:10:00 (in 0.002 days).                                                                                                   Time: 369 of 1200 seconds.  Estimated final completion at 14:10:10 (in 0.002 days).                                                                                                   Time: 370 of 1200 seconds.  Estimated final completion at 14:10:03 (in 0.002 days).                                                                                                   Time: 371 of 1200 seconds.  Estimated final completion at 14:09:57 (in 0.002 days).                                                                                                   Time: 372 of 1200 seconds.  Estimated final completion at 14:10:00 (in 0.002 days).                                                                                                   Time: 373 of 1200 seconds.  Estimated final completion at 14:10:07 (in 0.002 days).                                                                                                   Time: 374 of 1200 seconds.  Estimated final completion at 14:10:07 (in 0.002 days).                                                                                                   Time: 375 of 1200 seconds.  Estimated final completion at 14:10:13 (in 0.002 days).                                                                                                   Time: 376 of 1200 seconds.  Estimated final completion at 14:10:10 (in 0.002 days).                                                                                                   Time: 377 of 1200 seconds.  Estimated final completion at 14:10:07 (in 0.002 days).                                                                                                   Time: 378 of 1200 seconds.  Estimated final completion at 14:10:03 (in 0.002 days).                                                                                                   Time: 379 of 1200 seconds.  Estimated final completion at 14:09:57 (in 0.002 days).                                                                                                   Time: 380 of 1200 seconds.  Estimated final completion at 14:10:00 (in 0.002 days).                                                                                                   Time: 381 of 1200 seconds.  Estimated final completion at 14:10:03 (in 0.002 days).                                                                                                   Time: 382 of 1200 seconds.  Estimated final completion at 14:09:57 (in 0.002 days).                                                                                                   Time: 383 of 1200 seconds.  Estimated final completion at 14:09:57 (in 0.002 days).                                                                                                   Time: 384 of 1200 seconds.  Estimated final completion at 14:10:03 (in 0.002 days).                                                                                                   Time: 385 of 1200 seconds.  Estimated final completion at 14:09:57 (in 0.002 days).                                                                                                   Time: 386 of 1200 seconds.  Estimated final completion at 14:10:00 (in 0.002 days).                                                                                                   Time: 387 of 1200 seconds.  Estimated final completion at 14:10:00 (in 0.002 days).                                                                                                   Time: 388 of 1200 seconds.  Estimated final completion at 14:10:00 (in 0.002 days).                                                                                                   Time: 389 of 1200 seconds.  Estimated final completion at 14:09:57 (in 0.002 days).                                                                                                   Time: 390 of 1200 seconds.  Estimated final completion at 14:10:03 (in 0.002 days).                                                                                                   Time: 391 of 1200 seconds.  Estimated final completion at 14:09:57 (in 0.002 days).                                                                                                   Time: 392 of 1200 seconds.  Estimated final completion at 14:10:03 (in 0.002 days).                                                                                                   Time: 393 of 1200 seconds.  Estimated final completion at 14:10:00 (in 0.002 days).                                                                                                   Time: 394 of 1200 seconds.  Estimated final completion at 14:10:03 (in 0.002 days).                                                                                                   Time: 395 of 1200 seconds.  Estimated final completion at 14:10:06 (in 0.002 days).                                                                                                   Time: 396 of 1200 seconds.  Estimated final completion at 14:09:57 (in 0.002 days).                                                                                                   Time: 397 of 1200 seconds.  Estimated final completion at 14:10:00 (in 0.002 days).                                                                                                   Time: 398 of 1200 seconds.  Estimated final completion at 14:10:00 (in 0.002 days).                                                                                                   Time: 399 of 1200 seconds.  Estimated final completion at 14:10:00 (in 0.002 days).                                                                                                   Time: 400 of 1200 seconds.  Estimated final completion at 14:09:57 (in 0.002 days).                                                                                                   Time: 401 of 1200 seconds.  Estimated final completion at 14:10:03 (in 0.002 days).                                                                                                   Time: 402 of 1200 seconds.  Estimated final completion at 14:09:57 (in 0.002 days).                                                                                                   Time: 403 of 1200 seconds.  Estimated final completion at 14:10:00 (in 0.002 days).                                                                                                   Time: 404 of 1200 seconds.  Estimated final completion at 14:10:03 (in 0.002 days).                                                                                                   Time: 405 of 1200 seconds.  Estimated final completion at 14:09:57 (in 0.002 days).                                                                                                   Time: 406 of 1200 seconds.  Estimated final completion at 14:10:00 (in 0.002 days).                                                                                                   Time: 407 of 1200 seconds.  Estimated final completion at 14:10:00 (in 0.002 days).                                                                                                   Time: 408 of 1200 seconds.  Estimated final completion at 14:10:00 (in 0.002 days).                                                                                                   Time: 409 of 1200 seconds.  Estimated final completion at 14:09:57 (in 0.002 days).                                                                                                   Time: 410 of 1200 seconds.  Estimated final completion at 14:10:00 (in 0.002 days).                                                                                                   Time: 411 of 1200 seconds.  Estimated final completion at 14:09:57 (in 0.002 days).                                                                                                   Time: 412 of 1200 seconds.  Estimated final completion at 14:10:03 (in 0.002 days).                                                                                                   Time: 413 of 1200 seconds.  Estimated final completion at 14:10:00 (in 0.002 days).                                                                                                   Time: 414 of 1200 seconds.  Estimated final completion at 14:10:03 (in 0.002 days).                                                                                                   Time: 415 of 1200 seconds.  Estimated final completion at 14:10:00 (in 0.002 days).                                                                                                   Time: 416 of 1200 seconds.  Estimated final completion at 14:10:00 (in 0.002 days).                                                                                                   Time: 417 of 1200 seconds.  Estimated final completion at 14:10:00 (in 0.002 days).                                                                                                   Time: 418 of 1200 seconds.  Estimated final completion at 14:10:00 (in 0.002 days).                                                                                                   Time: 419 of 1200 seconds.  Estimated final completion at 14:10:00 (in 0.002 days).                                                                                                   Time: 420 of 1200 seconds.  Estimated final completion at 14:10:00 (in 0.002 days).                                                                                                   Time: 421 of 1200 seconds.  Estimated final completion at 14:10:03 (in 0.002 days).                                                                                                   Time: 422 of 1200 seconds.  Estimated final completion at 14:09:57 (in 0.002 days).                                                                                                   Time: 423 of 1200 seconds.  Estimated final completion at 14:10:00 (in 0.002 days).                                                                                                   Time: 424 of 1200 seconds.  Estimated final completion at 14:10:00 (in 0.002 days).                                                                                                   Time: 425 of 1200 seconds.  Estimated final completion at 14:10:03 (in 0.002 days).                                                                                                   Time: 426 of 1200 seconds.  Estimated final completion at 14:10:03 (in 0.002 days).                                                                                                   Time: 427 of 1200 seconds.  Estimated final completi
[...]
econds.  Estimated final completion at 14:10:02 (in 0.000 days).                                                                                                   Time: 1095 of 1200 seconds.  Estimated final completion at 14:10:03 (in 0.000 days).                                                                                                   Time: 1096 of 1200 seconds.  Estimated final completion at 14:10:03 (in 0.000 days).                                                                                                   Time: 1097 of 1200 seconds.  Estimated final completion at 14:10:03 (in 0.000 days).                                                                                                   Time: 1098 of 1200 seconds.  Estimated final completion at 14:10:12 (in 0.000 days).                                                                                                   Time: 1099 of 1200 seconds.  Estimated final completion at 14:10:05 (in 0.000 days).                                                                                                   Time: 1100 of 1200 seconds.  Estimated final completion at 14:10:02 (in 0.000 days).                                                                                                   Time: 1101 of 1200 seconds.  Estimated final completion at 14:10:03 (in 0.000 days).                                                                                                   Time: 1102 of 1200 seconds.  Estimated final completion at 14:10:04 (in 0.000 days).                                                                                                   Time: 1103 of 1200 seconds.  Estimated final completion at 14:10:02 (in 0.000 days).                                                                                                   Time: 1104 of 1200 seconds.  Estimated final completion at 14:10:02 (in 0.000 days).                                                                                                   Time: 1105 of 1200 seconds.  Estimated final completion at 14:10:02 (in 0.000 days).                                                                                                   Time: 1106 of 1200 seconds.  Estimated final completion at 14:10:02 (in 0.000 days).                                                                                                   Time: 1107 of 1200 seconds.  Estimated final completion at 14:10:03 (in 0.000 days).                                                                                                   Time: 1108 of 1200 seconds.  Estimated final completion at 14:10:04 (in 0.000 days).                                                                                                   Time: 1109 of 1200 seconds.  Estimated final completion at 14:10:03 (in 0.000 days).                                                                                                   Time: 1110 of 1200 seconds.  Estimated final completion at 14:10:03 (in 0.000 days).                                                                                                   Time: 1111 of 1200 seconds.  Estimated final completion at 14:10:02 (in 0.000 days).                                                                                                   Time: 1112 of 1200 seconds.  Estimated final completion at 14:10:02 (in 0.000 days).                                                                                                   Time: 1113 of 1200 seconds.  Estimated final completion at 14:10:02 (in 0.000 days).                                                                                                   Time: 1114 of 1200 seconds.  Estimated final completion at 14:10:02 (in 0.000 days).                                                                                                   Time: 1115 of 1200 seconds.  Estimated final completion at 14:10:03 (in 0.000 days).                                                                                                   Time: 1116 of 1200 seconds.  Estimated final completion at 14:10:02 (in 0.000 days).                                                                                                   Time: 1117 of 1200 seconds.  Estimated final completion at 14:10:02 (in 0.000 days).                                                                                                   Time: 1118 of 1200 seconds.  Estimated final completion at 14:10:02 (in 0.000 days).                                                                                                   Time: 1119 of 1200 seconds.  Estimated final completion at 14:10:02 (in 0.000 days).                                                                                                   Time: 1120 of 1200 seconds.  Estimated final completion at 14:10:02 (in 0.000 days).                                                                                                   Time: 1121 of 1200 seconds.  Estimated final completion at 14:10:02 (in 0.000 days).                                                                                                   Time: 1122 of 1200 seconds.  Estimated final completion at 14:10:02 (in 0.000 days).                                                                                                   Time: 1123 of 1200 seconds.  Estimated final completion at 14:10:03 (in 0.000 days).                                                                                                   Time: 1124 of 1200 seconds.  Estimated final completion at 14:10:03 (in 0.000 days).                                                                                                   Time: 1125 of 1200 seconds.  Estimated final completion at 14:10:02 (in 0.000 days).                                                                                                   Time: 1126 of 1200 seconds.  Estimated final completion at 14:10:03 (in 0.000 days).                                                                                                   Time: 1127 of 1200 seconds.  Estimated final completion at 14:10:02 (in 0.000 days).                                                                                                   Time: 1128 of 1200 seconds.  Estimated final completion at 14:10:02 (in 0.000 days).                                                                                                   Time: 1129 of 1200 seconds.  Estimated final completion at 14:10:02 (in 0.000 days).                                                                                                   Time: 1130 of 1200 seconds.  Estimated final completion at 14:10:02 (in 0.000 days).                                                                                                   Time: 1131 of 1200 seconds.  Estimated final completion at 14:10:02 (in 0.000 days).                                                                                                   Time: 1132 of 1200 seconds.  Estimated final completion at 14:10:02 (in 0.000 days).                                                                                                   Time: 1133 of 1200 seconds.  Estimated final completion at 14:10:02 (in 0.000 days).                                                                                                   Time: 1134 of 1200 seconds.  Estimated final completion at 14:10:03 (in 0.000 days).                                                                                                   Time: 1135 of 1200 seconds.  Estimated final completion at 14:10:01 (in 0.000 days).                                                                                                   Time: 1136 of 1200 seconds.  Estimated final completion at 14:10:02 (in 0.000 days).                                                                                                   Time: 1137 of 1200 seconds.  Estimated final completion at 14:10:03 (in 0.000 days).                                                                                                   Time: 1138 of 1200 seconds.  Estimated final completion at 14:10:02 (in 0.000 days).                                                                                                   Time: 1139 of 1200 seconds.  Estimated final completion at 14:10:02 (in 0.000 days).                                                                                                   Time: 1140 of 1200 seconds.  Estimated final completion at 14:10:02 (in 0.000 days).                                                                                                   Time: 1141 of 1200 seconds.  Estimated final completion at 14:10:02 (in 0.000 days).                                                                                                   Time: 1142 of 1200 seconds.  Estimated final completion at 14:10:03 (in 0.000 days).                                                                                                   Time: 1143 of 1200 seconds.  Estimated final completion at 14:10:02 (in 0.000 days).                                                                                                   Time: 1144 of 1200 seconds.  Estimated final completion at 14:10:02 (in 0.000 days).                                                                                                   Time: 1145 of 1200 seconds.  Estimated final completion at 14:10:02 (in 0.000 days).                                                                                                   Time: 1146 of 1200 seconds.  Estimated final completion at 14:10:02 (in 0.000 days).                                                                                                   Time: 1147 of 1200 seconds.  Estimated final completion at 14:10:02 (in 0.000 days).                                                                                                   Time: 1148 of 1200 seconds.  Estimated final completion at 14:10:03 (in 0.000 days).                                                                                                   Time: 1149 of 1200 seconds.  Estimated final completion at 14:10:02 (in 0.000 days).                                                                                                   Time: 1150 of 1200 seconds.  Estimated final completion at 14:10:03 (in 0.000 days).                                                                                                   Time: 1151 of 1200 seconds.  Estimated final completion at 14:10:02 (in 0.000 days).                                                                                                   Time: 1152 of 1200 seconds.  Estimated final completion at 14:10:02 (in 0.000 days).                                                                                                   Time: 1153 of 1200 seconds.  Estimated final completion at 14:10:03 (in 0.000 days).                                                                                                   Time: 1154 of 1200 seconds.  Estimated final completion at 14:10:02 (in 0.000 days).                                                                                                   Time: 1155 of 1200 seconds.  Estimated final completion at 14:10:03 (in 0.000 days).                                                                                                   Time: 1156 of 1200 seconds.  Estimated final completion at 14:10:02 (in 0.000 days).                                                                                                   Time: 1157 of 1200 seconds.  Estimated final completion at 14:10:02 (in 0.000 days).                                                                                                   Time: 1158 of 1200 seconds.  Estimated final completion at 14:10:02 (in 0.000 days).                                                                                                   Time: 1159 of 1200 seconds.  Estimated final completion at 14:10:02 (in 0.000 days).                                                                                                   Time: 1160 of 1200 seconds.  Estimated final completion at 14:10:02 (in 0.000 days).                                                                                                   Time: 1161 of 1200 seconds.  Estimated final completion at 14:10:02 (in 0.000 days).                                                                                                   Time: 1162 of 1200 seconds.  Estimated final completion at 14:10:03 (in 0.000 days).                                                                                                   Time: 1163 of 1200 seconds.  Estimated final completion at 14:10:02 (in 0.000 days).                                                                                                   Time: 1164 of 1200 seconds.  Estimated final completion at 14:10:02 (in 0.000 days).                                                                                                   Time: 1165 of 1200 seconds.  Estimated final completion at 14:10:02 (in 0.000 days).                                                                                                   Time: 1166 of 1200 seconds.  Estimated final completion at 14:10:02 (in 0.000 days).                                                                                                   Time: 1167 of 1200 seconds.  Estimated final completion at 14:10:02 (in 0.000 days).                                                                                                   Time: 1168 of 1200 seconds.  Estimated final completion at 14:10:02 (in 0.000 days).                                                                                                   Time: 1169 of 1200 seconds.  Estimated final completion at 14:10:02 (in 0.000 days).                                                                                                   Time: 1170 of 1200 seconds.  Estimated final completion at 14:10:03 (in 0.000 days).                                                                                                   Time: 1171 of 1200 seconds.  Estimated final completion at 14:10:02 (in 0.000 days).                                                                                                   Time: 1172 of 1200 seconds.  Estimated final completion at 14:10:02 (in 0.000 days).                                                                                                   Time: 1173 of 1200 seconds.  Estimated final completion at 14:10:02 (in 0.000 days).                                                                                                   Time: 1174 of 1200 seconds.  Estimated final completion at 14:10:02 (in 0.000 days).                                                                                                   Time: 1175 of 1200 seconds.  Estimated final completion at 14:10:02 (in 0.000 days).                                                                                                   Time: 1176 of 1200 seconds.  Estimated final completion at 14:10:03 (in 0.000 days).                                                                                                   Time: 1177 of 1200 seconds.  Estimated final completion at 14:10:03 (in 0.000 days).                                                                                                   Time: 1178 of 1200 seconds.  Estimated final completion at 14:10:03 (in 0.000 days).                                                                                                   Time: 1179 of 1200 seconds.  Estimated final completion at 14:10:02 (in 0.000 days).                                                                                                   Time: 1180 of 1200 seconds.  Estimated final completion at 14:10:03 (in 0.000 days).                                                                                                   Time: 1181 of 1200 seconds.  Estimated final completion at 14:10:02 (in 0.000 days).                                                                                                   Time: 1182 of 1200 seconds.  Estimated final completion at 14:10:02 (in 0.000 days).                                                                                                   Time: 1183 of 1200 seconds.  Estimated final completion at 14:10:03 (in 0.000 days).                                                                                                   Time: 1184 of 1200 seconds.  Estimated final completion at 14:10:03 (in 0.000 days).                                                                                                   Time: 1185 of 1200 seconds.  Estimated final completion at 14:10:03 (in 0.000 days).                                                                                                   Time: 1186 of 1200 seconds.  Estimated final completion at 14:10:02 (in 0.000 days).                                                                                                   Time: 1187 of 1200 seconds.  Estimated final completion at 14:10:03 (in 0.000 days).                                                                                                   Time: 1188 of 1200 seconds.  Estimated final completion at 14:10:03 (in 0.000 days).                                                                                                   Time: 1189 of 1200 seconds.  Estimated final completion at 14:10:03 (in 0.000 days).                                                                                                   Time: 1190 of 1200 seconds.  Estimated final completion at 14:10:03 (in 0.000 days).                                                                                                   Time: 1191 of 1200 seconds.  Estimated final completion at 14:10:03 (in 0.000 days).                                                                                                   Time: 1192 of 1200 seconds.  Estimated final completion at 14:10:03 (in 0.000 days).                                                                                                   Time: 1193 of 1200 seconds.  Estimated final completion at 14:10:03 (in 0.000 days).                                                                                                   Time: 1194 of 1200 seconds.  Estimated final completion at 14:10:03 (in 0.000 days).                                                                                                   Time: 1195 of 1200 seconds.  Estimated final completion at 14:10:03 (in 0.000 days).                                                                                                   Time: 1196 of 1200 seconds.  Estimated final completion at 14:10:03 (in 0.000 days).                                                                                                   Time: 1197 of 1200 seconds.  Estimated final completion at 14:10:03 (in 0.000 days).                                                                                                   Time: 1198 of 1200 seconds.  Estimated final completion at 14:10:03 (in 0.000 days).                                                                                                   Time: 1199 of 1200 seconds.  Estimated final completion at 14:10:03 (in 0.000 days).                                                                                                   Time: 1200 of 1200 seconds.  Estimated final completion at 14:10:03 (in 0.000 days).                                                                                                  

 Total Real Time:       3.9078 minutes
 Total CPU Time:        3.8464 minutes
 Simulation CPU Time:   3.826 minutes
 Simulated Time:        20 minutes
 Time Ratio (Sim/CPU):  5.2273

 OpenFAST terminated normally.

