
**************************************************************************************************
OpenFAST

Copyright (C) 2025 National Renewable Energy Laboratory
Copyright (C) 2025 Envision Energy USA LTD

This program is licensed under Apache License Version 2.0 and comes with ABSOLUTELY NO WARRANTY.
See the "LICENSE" file distributed with this software for details.
**************************************************************************************************

OpenFAST-v4.1.2
Compile Info:
 - Compiler: Intel(R) Fortran Compiler 2021
 - Architecture: 64 bit
 - Precision: single
 - OpenMP: No
 - Date: Aug 06 2025
 - Time: 19:22:48
Execution Info:
 - Date: 05/03/2026
 - Time: 18:23:21-0700

OpenFAST input file heading:
    Generated with OpenFAST_IO

 Running ElastoDyn.
 Running SeaState.
 Running HydroDyn.
 Reading in WAMIT output with root name
 "C:\Users\xlama\OneDrive\Documents\buoy\HSP_code\tests\fixtures\openfast\oc4_deepcwind\baseline\5
 MW_Baseline\HydroData\marin_semi".
 Computing radiation impulse response functions and wave diffraction forces.

FAST_InitializeAll:ED_Init:ED_ReadInput:ReadBladeInputs:ReadBladeFile:The ElastoDyn Blade file,
.\s1_static_eq_ElastoDynBlade.dat, DISTRIBUTED BLADE PROPERTIES table contains the PitchAxis
column.  This column is unused and will be removed in future releases
FAST_InitializeAll:SeaSt_Init:SeaStateInput_ProcessInitData:WvHiCOff adjusted to 5.23599E-03
rad/s, based on WaveDT.

 Time: 0 of 600 seconds.                                                                                                   Time: 1 of 600 seconds.  Estimated final completion at 18:25:19 (in 0.001 days).                                                                                                   Time: 2 of 600 seconds.  Estimated final completion at 18:25:14 (in 0.001 days).                                                                                                   Time: 3 of 600 seconds.  Estimated final completion at 18:25:19 (in 0.001 days).                                                                                                   Time: 4 of 600 seconds.  Estimated final completion at 18:25:14 (in 0.001 days).                                                                                                   Time: 5 of 600 seconds.  Estimated final completion at 18:25:14 (in 0.001 days).                                                                                                   Time: 6 of 600 seconds.  Estimated final completion at 18:25:14 (in 0.001 days).                                                                                                   Time: 7 of 600 seconds.  Estimated final completion at 18:25:14 (in 0.001 days).                                                                                                   Time: 8 of 600 seconds.  Estimated final completion at 18:25:14 (in 0.001 days).                                                                                                   Time: 9 of 600 seconds.  Estimated final completion at 18:25:14 (in 0.001 days).                                                                                                   Time: 10 of 600 seconds.  Estimated final completion at 18:25:09 (in 0.001 days).                                                                                                   Time: 11 of 600 seconds.  Estimated final completion at 18:25:14 (in 0.001 days).                                                                                                   Time: 12 of 600 seconds.  Estimated final completion at 18:25:19 (in 0.001 days).                                                                                                   Time: 13 of 600 seconds.  Estimated final completion at 18:25:19 (in 0.001 days).                                                                                                   Time: 14 of 600 seconds.  Estimated final completion at 18:25:19 (in 0.001 days).                                                                                                   Time: 15 of 600 seconds.  Estimated final completion at 18:26:23 (in 0.002 days).                                                                                                   Time: 16 of 600 seconds.  Estimated final completion at 18:28:22 (in 0.003 days).                                                                                                   Time: 17 of 600 seconds.  Estimated final completion at 18:28:58 (in 0.004 days).                                                                                                   Time: 18 of 600 seconds.  Estimated final completion at 18:28:58 (in 0.004 days).                                                                                                   Time: 19 of 600 seconds.  Estimated final completion at 18:29:48 (in 0.004 days).                                                                                                   Time: 20 of 600 seconds.  Estimated final completion at 18:29:30 (in 0.004 days).                                                                                                   Time: 21 of 600 seconds.  Estimated final completion at 18:29:21 (in 0.004 days).                                                                                                   Time: 22 of 600 seconds.  Estimated final completion at 18:28:45 (in 0.004 days).                                                                                                   Time: 23 of 600 seconds.  Estimated final completion at 18:28:22 (in 0.003 days).                                                                                                   Time: 24 of 600 seconds.  Estimated final completion at 18:28:22 (in 0.003 days).                                                                                                   Time: 25 of 600 seconds.  Estimated final completion at 18:28:49 (in 0.004 days).                                                                                                   Time: 26 of 600 seconds.  Estimated final completion at 18:28:54 (in 0.004 days).                                                                                                   Time: 27 of 600 seconds.  Estimated final completion at 18:28:13 (in 0.003 days).                                                                                                   Time: 28 of 600 seconds.  Estimated final completion at 18:28:40 (in 0.004 days).                                                                                                   Time: 29 of 600 seconds.  Estimated final completion at 18:28:58 (in 0.004 days).                                                                                                   Time: 30 of 600 seconds.  Estimated final completion at 18:28:36 (in 0.004 days).                                                                                                   Time: 31 of 600 seconds.  Estimated final completion at 18:28:27 (in 0.003 days).                                                                                                   Time: 32 of 600 seconds.  Estimated final completion at 18:29:16 (in 0.004 days).                                                                                                   Time: 33 of 600 seconds.  Estimated final completion at 18:28:36 (in 0.003 days).                                                                                                   Time: 34 of 600 seconds.  Estimated final completion at 18:28:45 (in 0.004 days).                                                                                                   Time: 35 of 600 seconds.  Estimated final completion at 18:28:49 (in 0.004 days).                                                                                                   Time: 36 of 600 seconds.  Estimated final completion at 18:28:49 (in 0.004 days).                                                                                                   Time: 37 of 600 seconds.  Estimated final completion at 18:28:23 (in 0.003 days).                                                                                                   Time: 38 of 600 seconds.  Estimated final completion at 18:28:58 (in 0.004 days).                                                                                                   Time: 39 of 600 seconds.  Estimated final completion at 18:28:27 (in 0.003 days).                                                                                                   Time: 40 of 600 seconds.  Estimated final completion at 18:28:18 (in 0.003 days).                                                                                                   Time: 41 of 600 seconds.  Estimated final completion at 18:28:36 (in 0.003 days).                                                                                                   Time: 42 of 600 seconds.  Estimated final completion at 18:28:49 (in 0.004 days).                                                                                                   Time: 43 of 600 seconds.  Estimated final completion at 18:29:11 (in 0.004 days).                                                                                                   Time: 44 of 600 seconds.  Estimated final completion at 18:29:11 (in 0.004 days).                                                                                                   Time: 45 of 600 seconds.  Estimated final completion at 18:29:15 (in 0.004 days).                                                                                                   Time: 46 of 600 seconds.  Estimated final completion at 18:28:32 (in 0.003 days).                                                                                                   Time: 47 of 600 seconds.  Estimated final completion at 18:29:24 (in 0.004 days).                                                                                                   Time: 48 of 600 seconds.  Estimated final completion at 18:28:32 (in 0.003 days).                                                                                                   Time: 49 of 600 seconds.  Estimated final completion at 18:28:40 (in 0.003 days).                                                                                                   Time: 50 of 600 seconds.  Estimated final completion at 18:29:02 (in 0.004 days).                                                                                                   Time: 51 of 600 seconds.  Estimated final completion at 18:28:32 (in 0.003 days).                                                                                                   Time: 52 of 600 seconds.  Estimated final completion at 18:29:19 (in 0.004 days).                                                                                                   Time: 53 of 600 seconds.  Estimated final completion at 18:28:23 (in 0.003 days).                                                                                                   Time: 54 of 600 seconds.  Estimated final completion at 18:29:27 (in 0.004 days).                                                                                                   Time: 55 of 600 seconds.  Estimated final completion at 18:26:45 (in 0.002 days).                                                                                                   Time: 56 of 600 seconds.  Estimated final completion at 18:25:33 (in 0.001 days).                                                                                                   Time: 57 of 600 seconds.  Estimated final completion at 18:25:33 (in 0.001 days).                                                                                                   Time: 58 of 600 seconds.  Estimated final completion at 18:25:29 (in 0.001 days).                                                                                                   Time: 59 of 600 seconds.  Estimated final completion at 18:25:29 (in 0.001 days).                                                                                                   Time: 60 of 600 seconds.  Estimated final completion at 18:25:29 (in 0.001 days).                                                                                                   Time: 61 of 600 seconds.  Estimated final completion at 18:27:27 (in 0.003 days).                                                                                                   Time: 62 of 600 seconds.  Estimated final completion at 18:29:16 (in 0.004 days).                                                                                                   Time: 63 of 600 seconds.  Estimated final completion at 18:28:59 (in 0.004 days).                                                                                                   Time: 64 of 600 seconds.  Estimated final completion at 18:28:51 (in 0.003 days).                                                                                                   Time: 65 of 600 seconds.  Estimated final completion at 18:28:55 (in 0.004 days).                                                                                                   Time: 66 of 600 seconds.  Estimated final completion at 18:28:51 (in 0.003 days).                                                                                                   Time: 67 of 600 seconds.  Estimated final completion at 18:28:43 (in 0.003 days).                                                                                                   Time: 68 of 600 seconds.  Estimated final completion at 18:29:04 (in 0.004 days).                                                                                                   Time: 69 of 600 seconds.  Estimated final completion at 18:28:51 (in 0.003 days).                                                                                                   Time: 70 of 600 seconds.  Estimated final completion at 18:28:30 (in 0.003 days).                                                                                                   Time: 71 of 600 seconds.  Estimated final completion at 18:28:43 (in 0.003 days).                                                                                                   Time: 72 of 600 seconds.  Estimated final completion at 18:28:47 (in 0.003 days).                                                                                                   Time: 73 of 600 seconds.  Estimated final completion at 18:29:32 (in 0.004 days).                                                                                                   Time: 74 of 600 seconds.  Estimated final completion at 18:28:39 (in 0.003 days).                                                                                                   Time: 75 of 600 seconds.  Estimated final completion at 18:29:24 (in 0.004 days).                                                                                                   Time: 76 of 600 seconds.  Estimated final completion at 18:29:08 (in 0.004 days).                                                                                                   Time: 77 of 600 seconds.  Estimated final completion at 18:28:59 (in 0.003 days).                                                                                                   Time: 78 of 600 seconds.  Estimated final completion at 18:28:47 (in 0.003 days).                                                                                                   Time: 79 of 600 seconds.  Estimated final completion at 18:29:03 (in 0.004 days).                                                                                                   Time: 80 of 600 seconds.  Estimated final completion at 18:28:55 (in 0.003 days).                                                                                                   Time: 81 of 600 seconds.  Estimated final completion at 18:29:07 (in 0.004 days).                                                                                                   Time: 82 of 600 seconds.  Estimated final completion at 18:28:27 (in 0.003 days).                                                                                                   Time: 83 of 600 seconds.  Estimated final completion at 18:28:27 (in 0.003 days).                                                                                                   Time: 84 of 600 seconds.  Estimated final completion at 18:29:07 (in 0.004 days).                                                                                                   Time: 85 of 600 seconds.  Estimated final completion at 18:28:39 (in 0.003 days).                                                                                                   Time: 86 of 600 seconds.  Estimated final completion at 18:28:43 (in 0.003 days).                                                                                                   Time: 87 of 600 seconds.  Estimated final completion at 18:28:23 (in 0.003 days).                                                                                                   Time: 88 of 600 seconds.  Estimated final completion at 18:28:27 (in 0.003 days).                                                                                                   Time: 89 of 600 seconds.  Estimated final completion at 18:28:59 (in 0.003 days).                                                                                                   Time: 90 of 600 seconds.  Estimated final completion at 18:28:19 (in 0.003 days).                                                                                                   Time: 91 of 600 seconds.  Estimated final completion at 18:28:51 (in 0.003 days).                                                                                                   Time: 92 of 600 seconds.  Estimated final completion at 18:28:39 (in 0.003 days).                                                                                                   Time: 93 of 600 seconds.  Estimated final completion at 18:28:27 (in 0.003 days).                                                                                                   Time: 94 of 600 seconds.  Estimated final completion at 18:28:51 (in 0.003 days).                                                                                                   Time: 95 of 600 seconds.  Estimated final completion at 18:28:59 (in 0.003 days).                                                                                                   Time: 96 of 600 seconds.  Estimated final completion at 18:28:23 (in 0.003 days).                                                                                                   Time: 97 of 600 seconds.  Estimated final completion at 18:29:11 (in 0.004 days).                                                                                                   Time: 98 of 600 seconds.  Estimated final completion at 18:28:43 (in 0.003 days).                                                                                                   Time: 99 of 600 seconds.  Estimated final completion at 18:29:03 (in 0.003 days).                                                                                                   Time: 100 of 600 seconds.  Estimated final completion at 18:28:47 (in 0.003 days).                                                                                                   Time: 101 of 600 seconds.  Estimated final completion at 18:28:28 (in 0.003 days).                                                                                                   Time: 102 of 600 seconds.  Estimated final completion at 18:28:55 (in 0.003 days).                                                                                                   Time: 103 of 600 seconds.  Estimated final completion at 18:28:43 (in 0.003 days).                                                                                                   Time: 104 of 600 seconds.  Estimated final completion at 18:28:24 (in 0.003 days).                                                                                                   Time: 105 of 600 seconds.  Estimated final completion at 18:28:35 (in 0.003 days).                                                                                                   Time: 106 of 600 seconds.  Estimated final completion at 18:28:35 (in 0.003 days).                                                                                                   Time: 107 of 600 seconds.  Estimated final completion at 18:28:35 (in 0.003 days).                                                                                                   Time: 108 of 600 seconds.  Estimated final completion at 18:28:28 (in 0.003 days).                                                                                                   Time: 109 of 600 seconds.  Estimated final completion at 18:28:24 (in 0.003 days).                                                                                                   Time: 110 of 600 seconds.  Estimated final completion at 18:28:35 (in 0.003 days).                                                                                                   Time: 111 of 600 seconds.  Estimated final completion at 18:28:24 (in 0.003 days).                                                                                                   Time: 112 of 600 seconds.  Estimated final completion at 18:28:05 (in 0.003 days).                                                                                                   Time: 113 of 600 seconds.  Estimated final completion at 18:28:43 (in 0.003 days).                                                                                                   Time: 114 of 600 seconds.  Estimated final completion at 18:28:12 (in 0.003 days).                                                                                                   Time: 115 of 600 seconds.  Estimated final completion at 18:28:24 (in 0.003 days).                                                                                                   Time: 116 of 600 seconds.  Estimated final completion at 18:28:43 (in 0.003 days).                                                                                                   Time: 117 of 600 seconds.  Estimated final completion at 18:28:47 (in 0.003 days).                                                                                                   Time: 118 of 600 seconds.  Estimated final completion at 18:28:39 (in 0.003 days).                                                                                                   Time: 119 of 600 seconds.  Estimated final completion at 18:27:42 (in 0.002 days).                                                                                                   Time: 120 of 600 seconds.  Estimated final completion at 18:25:54 (in 0.001 days).                                                                                                   Time: 121 of 600 seconds.  Estimated final completion at 18:25:54 (in 0.001 days).                                                                                                   Time: 122 of 600 seconds.  Estimated final completion at 18:25:54 (in 0.001 days).                                                                                                   Time: 123 of 600 seconds.  Estimated final completion at 18:25:46 (in 0.001 days).                                                                                                   Time: 124 of 600 seconds.  Estimated final completion at 18:25:53 (in 0.001 days).                                                                                                   Time: 125 of 600 seconds.  Estimated final completion at 18:25:50 (in 0.001 days).                                                                                                   Time: 126 of 600 seconds.  Estimated final completion at 18:25:53 (in 0.001 days).                                                                                                   Time: 127 of 600 seconds.  Estimated final completion at 18:25:50 (in 0.001 days).                                                                                                   Time: 128 of 600 seconds.  Estimated final completion at 18:25:50 (in 0.001 days).                                                                                                   Time: 129 of 600 seconds.  Estimated final completion at 18:25:50 (in 0.001 days).                                                                                                   Time: 130 of 600 seconds.  Estimated final completion at 18:26:12 (in 0.001 days).                                                                                                   Time: 131 of 600 seconds.  Estimated final completion at 18:28:20 (in 0.003 days).                                                                                                   Time: 132 of 600 seconds.  Estimated final completion at 18:28:42 (in 0.003 days).                                                                                                   Time: 133 of 600 seconds.  Estimated final completion at 18:28:39 (in 0.003 days).                                                                                                   Time: 134 of 600 seconds.  Estimated final completion at 18:29:04 (in 0.003 days).                                                                                                   Time: 135 of 600 seconds.  Estimated final completion at 18:28:28 (in 0.003 days).                                                                                                   Time: 136 of 600 seconds.  Estimated final completion at 18:28:24 (in 0.003 days).                                                                                                   Time: 137 of 600 seconds.  Estimated final completion at 18:28:31 (in 0.003 days).                                                                                                   Time: 138 of 600 seconds.  Estimated final completion at 18:28:53 (in 0.003 days).                                                                                                   Time: 139 of 600 seconds.  Estimated final completion at 18:29:18 (in 0.003 days).                                                                                                   Time: 140 of 600 seconds.  Estimated final completion at 18:28:46 (in 0.003 days).                                                                                                   Time: 141 of 600 seconds.  Estimated final completion at 18:28:24 (in 0.003 days).                                                                                                   Time: 142 of 600 seconds.  Estimated final completion at 18:28:24 (in 0.003 days).                                                                                                   Time: 143 of 600 seconds.  Estimated final completion at 18:28:35 (in 0.003 days).                                                                                                   Time: 144 of 600 seconds.  Estimated final completion at 18:28:28 (in 0.003 days).                                                                                                   Time: 145 of 600 seconds.  Estimated final completion at 18:28:28 (in 0.003 days).                                                                                                   Time: 146 of 600 seconds.  Estimated final completion at 18:28:35 (in 0.003 days).                                                                                                   Time: 147 of 600 seconds.  Estimated final completion at 18:28:32 (in 0.003 days).                                                                                                   Time: 148 of 600 seconds.  Estimated final completion at 18:28:42 (in 0.003 days).                                                                                                   Time: 149 of 600 seconds.  Estimated final completion at 18:29:18 (in 0.003 days).                                                                                                   Time: 150 of 600 seconds.  Estimated final completion at 18:28:35 (in 0.003 days).                                                                                                   Time: 151 of 600 seconds.  Estimated final completion at 18:29:03 (in 0.003 days).                                                                                                   Time: 152 of 600 seconds.  Estimated final completion at 18:29:42 (in 0.004 days).                                                                                                   Time: 153 of 600 seconds.  Estimated final completion at 18:29:10 (in 0.003 days).                                                                                                   Time: 154 of 600 seconds.  Estimated final completion at 18:29:14 (in 0.003 days).                                                                                                   Time: 155 of 600 seconds.  Estimated final completion at 18:29:49 (in 0.004 days).                                                                                                   Time: 156 of 600 seconds.  Estimated final completion at 18:28:36 (in 0.003 days).                                                                                                   Time: 157 of 600 seconds.  Estimated final completion at 18:29:07 (in 0.003 days).                                                                                                   Time: 158 of 600 seconds.  Estimated final completion at 18:28:25 (in 0.003 days).                                                                                                   Time: 159 of 600 seconds.  Estimated final completion at 18:28:19 (in 0.003 days).                                                                                                   Time: 160 of 600 seconds.  Estimated final completion at 18:28:19 (in 0.003 days).                                                                                                   Time: 161 of 600 seconds.  Estimated final completion at 18:28:32 (in 0.003 days).                                                                                                   Time: 162 of 600 seconds.  Estimated final completion at 18:28:43 (in 0.003 days).                                                                                                   Time: 163 of 600 seconds.  Estimated final completion at 18:28:19 (in 0.003 days).                                                                                                   Time: 164 of 600 seconds.  Estimated final completion at 18:28:32 (in 0.003 days).                                                                                                   Time: 165 of 600 seconds.  Estimated final completion at 18:28:22 (in 0.003 days).                                                                                                   Time: 166 of 600 seconds.  Estimated final completion at 18:28:19 (in 0.003 days).                                                                                                   Time: 167 of 600 seconds.  Estimated final completion at 18:28:42 (in 0.003 days).                                                                                                   Time: 168 of 600 seconds.  Estimated final completion at 18:28:32 (in 0.003 days).                                                                                                   Time: 169 of 600 seconds.  Estimated final completion at 18:28:26 (in 0.003 days).                                                                                                   Time: 170 of 600 seconds.  Estimated final completion at 18:28:29 (in 0.003 days).                                                                                                   Time: 171 of 600 seconds.  Estimated final completion at 18:28:22 (in 0.003 days).                                                                                                   Time: 172 of 600 seconds.  Estimated final completion at 18:28:22 (in 0.003 days).                                                                                                   Time: 173 of 600 seconds.  Estimated final completion at 18:28:29 (in 0.003 days).                                                                                                   Time: 174 of 600 seconds.  Estimated final completion at 18:28:29 (in 0.003 days).                                                                                                   Time: 175 of 600 seconds.  Estimated final completion at 18:28:42 (in 0.003 days).                                                                                                   Time: 176 of 600 seconds.  Estimated final completion at 18:28:42 (in 0.003 days).                                                                                                   Time: 177 of 600 seconds.  Estimated final completion at 18:28:42 (in 0.003 days).                                                                                                   Time: 178 of 600 seconds.  Estimated final completion at 18:28:59 (in 0.003 days).                                                                                                   Time: 179 of 600 seconds.  Estimated final completion at 18:28:55 (in 0.003 days).                                                                                                   Time: 180 of 600 seconds.  Estimated final completion at 18:28:55 (in 0.003 days).                                                                                                   Time: 181 of 600 seconds.  Estimated final completion at 18:29:22 (in 0.003 days).                                                                                                   Time: 182 of 600 seconds.  Estimated final completion at 18:28:39 (in 0.003 days).                                                                                                   Time: 183 of 600 seconds.  Estimated final completion at 18:28:29 (in 0.003 days).                                                                                                   Time: 184 of 600 seconds.  Estimated final completion at 18:28:42 (in 0.003 days).                                                                                                   Time: 185 of 600 seconds.  Estimated final completion at 18:28:26 (in 0.002 days).                                                                                                   Time: 186 of 600 seconds.  Estimated final completion at 18:28:07 (in 0.002 days).                                                                                                   Time: 187 of 600 seconds.  Estimated final completion at 18:28:33 (in 0.003 days).                                                                                                   Time: 188 of 600 seconds.  Estimated final completion at 18:28:29 (in 0.002 days).                                                                                                   Time: 189 of 600 seconds.  Estimated final completion at 18:28:20 (in 0.002 days).                                                                                                   Time: 190 of 600 seconds.  Estimated final completion at 18:28:26 (in 0.002 days).                                                                                                   Time: 191 of 600 seconds.  Estimated final completion at 18:28:10 (in 0.002 days).                                                                                                   Time: 192 of 600 seconds.  Estimated final completion at 18:28:48 (in 0.003 days).                                                                                                   Time: 193 of 600 seconds.  Estimated final completion at 18:29:14 (in 0.003 days).                                                                                                   Time: 194 of 600 seconds.  Estimated final completion at 18:29:17 (in 0.003 days).                                                                                                   Time: 195 of 600 seconds.  Estimated final completion at 18:28:29 (in 0.002 days).                                                                                                   Time: 196 of 600 seconds.  Estimated final completion at 18:29:23 (in 0.003 days).                                                                                                   Time: 197 of 600 seconds.  Estimated final completion at 18:28:55 (in 0.003 days).                                                                                                   Time: 198 of 600 seconds.  Estimated final completion at 18:28:52 (in 0.003 days).                                                                                                   Time: 199 of 600 seconds.  Estimated final completion at 18:28:52 (in 0.003 days).                                                                                                   Time: 200 of 600 seconds.  Estimated final completion at 18:28:52 (in 0.003 days).                                                                                                   Time: 201 of 600 seconds.  Estimated final completion at 18:28:39 (in 0.003 days).                                                                                                   Time: 202 of 600 seconds.  Estimated final completion at 18:28:05 (in 0.002 days).                                                                                                   Time: 203 of 600 seconds.  Estimated final completion at 18:28:30 (in 0.002 days).                                                                                                   Time: 204 of 600 seconds.  Estimated final completion at 18:28:52 (in 0.003 days).                                                                                                   Time: 205 of 600 seconds.  Estimated final completion at 18:28:55 (in 0.003 days).                                                                                                   Time: 206 of 600 seconds.  Estimated final completion at 18:28:55 (in 0.003 days).                                                                                                   Time: 207 of 600 seconds.  Estimated final completion at 18:28:58 (in 0.003 days).                                                                                                   Time: 208 of 600 seconds.  Estimated final completion at 18:28:39 (in 0.002 days).                                                                                                   Time: 209 of 600 seconds.  Estimated final completion at 18:29:10 (in 0.003 days).                                                                                                   Time: 210 of 600 seconds.  Estimated final completion at 18:28:39 (in 0.002 days).                                                                                                   Time: 211 of 600 seconds.  Estimated final completion at 18:29:04 (in 0.003 days).                                                                                                   Time: 212 of 600 seconds.  Estimated final completion at 18:29:07 (in 0.003 days).                                                                                                   Time: 213 of 600 seconds.  Estimated final completion at 18:28:36 (in 0.002 days).                                                                                                   Time: 214 of 600 seconds.  Estimated final completion at 18:28:36 (in 0.002 days).                                                                                                   Time: 215 of 600 seconds.  Estimated final completion at 18:28:39 (in 0.002 days).                                                                                                   Time: 216 of 600 seconds.  Estimated final completion at 18:28:48 (in 0.003 days).                                                                                                   Time: 217 of 600 seconds.  Estimated final completion at 18:28:42 (in 0.002 days).                                                                                                   Time: 218 of 600 seconds.  Estimated final completion at 18:28:48 (in 0.003 days).                                                                                                   Time: 219 of 600 seconds.  Estimated final completion at 18:28:42 (in 0.002 days).                                                                                                   Time: 220 of 600 seconds.  Estimated final completion at 18:28:48 (in 0.003 days).                                                                                                   Time: 221 of 600 seconds.  Estimated final completion at 18:28:37 (in 0.002 days).                                                                                                   Time: 222 of 600 seconds.  Estimated final completion at 18:29:00 (in 0.003 days).                                                                                                   Time: 223 of 600 seconds.  Estimated final completion at 18:29:15 (in 0.003 days).                                                                                                   Time: 224 of 600 seconds.  Estimated final completion at 18:28:13 (in 0.002 days).                                                                                                   Time: 225 of 600 seconds.  Estimated final completion at 18:27:56 (in 0.002 days).                                                                                                   Time: 226 of 600 seconds.  Estimated final completion at 18:28:22 (in 0.002 days).                                                                                                   Time: 227 of 600 seconds.  Estimated final completion at 18:28:39 (in 0.002 days).                                                                                                   Time: 228 of 600 seconds.  Estimated final completion at 18:28:13 (in 0.002 days).                                                                                                   Time: 229 of 600 seconds.  Estimated final completion at 18:28:04 (in 0.002 days).                                                                                                   Time: 230 of 600 seconds.  Estimated final completion at 18:28:36 (in 0.002 days).                                                                                                   Time: 231 of 600 seconds.  Estimated final completion at 18:29:08 (in 0.003 days).                                                                                                   Time: 232 of 600 seconds.  Estimated final completion at 18:28:51 (in 0.002 days).                                                                                                   Time: 233 of 600 seconds.  Estimated final completion at 18:28:37 (in 0.002 days).                                                                                                   Time: 234 of 600 seconds.  Estimated final completion at 18:28:42 (in 0.002 days).                                                                                                   Time: 235 of 600 seconds.  Estimated final completion at 18:29:08 (in 0.003 days).                                                                                                   Time: 236 of 600 seconds.  Estimated final completion at 18:28:54 (in 0.002 days).                                                                                                   Time: 237 of 600 seconds.  Estimated final completion at 18:28:54 (in 0.002 days).                                                                                                   Time: 238 of 600 seconds.  Estimated final completion at 18:28:59 (in 0.003 days).                                                                                                   Time: 239 of 600 seconds.  Estimated final completion at 18:28:42 (in 0.002 days).                                                                                                   Time: 240 of 600 seconds.  Estimated final completion at 18:29:19 (in 0.003 days).                                                                                                   Time: 241 of 600 seconds.  Estimated final completion at 18:29:13 (in 0.003 days).                                                                                                   Time: 242 of 600 seconds.  Estimated final completion at 18:28:15 (in 0.002 days).                                                                                                   Time: 243 of 600 seconds.  Estimated final completion at 18:28:54 (in 0.002 days).                                                                                                   Time: 244 of 600 seconds.  Estimated final completion at 18:28:20 (in 0.002 days).                                                                                                   Time: 245 of 600 seconds.  Estimated final completion at 18:28:20 (in 0.002 days).                                                                                                   Time: 246 of 600 seconds.  Estimated final completion at 18:28:29 (in 0.002 days).                                                                                                   Time: 247 of 600 seconds.  Estimated final completion at 18:28:42 (in 0.002 days).                                                                                                   Time: 248 of 600 seconds.  Estimated final completion at 18:28:29 (in 0.002 days).                                                                                                   Time: 249 of 600 seconds.  Estimated final completion at 18:28:51 (in 0.002 days).                                                                                                   Time: 250 of 600 seconds.  Estimated final completion at 18:29:04 (in 0.003 days).                                                                                                   Time: 251 of 600 seconds.  Estimated final completion at 18:28:53 (in 0.002 days).                                                                                                   Time: 252 of 600 seconds.  Estimated final completion at 18:28:45 (in 0.002 days).                                                                                                   Time: 253 of 600 seconds.  Estimated final completion at 18:28:40 (in 0.002 days).                                                                                                   Time: 254 of 600 seconds.  Estimated final completion at 18:28:34 (in 0.002 days).                                                                                                   Time: 255 of 600 seconds.  Estimated final completion at 18:28:42 (in 0.002 days).                                                                                                   Time: 256 of 600 seconds.  Estimated final completion at 18:28:32 (in 0.002 days).                                                                                                   Time: 257 of 600 seconds.  Estimated final completion at 18:29:09 (in 0.003 days).                                                                                                   Time: 258 of 600 seconds.  Estimated final completion at 18:28:37 (in 0.002 days).                                                                                                   Time: 259 of 600 seconds.  Estimated final completion at 18:28:29 (in 0.002 days).                                                                                                   Time: 260 of 600 seconds.  Estimated final completion at 18:28:42 (in 0.002 days).                                                                                                   Time: 261 of 600 seconds.  Estimated final completion at 18:27:02 (in 0.001 days).                                                                                                   Time: 262 of 600 seconds.  Estimated final completion at 18:26:40 (in 0.001 days).                                                                                                   Time: 263 of 600 seconds.  Estimated final completion at 18:26:38 (in 0.001 days).                                                                                                   Time: 264 of 600 seconds.  Estimated final completion at 18:26:40 (in 0.001 days).                                                                                                   Time: 265 of 600 seconds.  Estimated final completion at 18:26:38 (in 0.001 days).                                                                                                   Time: 266 of 600 seconds.  Estimated final completion at 18:26:40 (in 0.001 days).                                                                                                   Time: 267 of 600 seconds.  Estimated final completion at 18:26:38 (in 0.001 days).                                                                                                   Time: 268 of 600 seconds.  Estimated final completion at 18:26:40 (in 0.001 days).                                                                                                   Time: 269 of 600 seconds.  Estimated final completion at 18:26:38 (in 0.001 days).                                                                                                   Time: 270 of 600 seconds.  Estimated final completion at 18:26:40 (in 0.001 days).                                                                                                   Time: 271 of 600 seconds.  Estimated final completion at 18:28:26 (in 0.002 days).                                                                                                   Time: 272 of 600 seconds.  Estimated final completion at 18:28:34 (in 0.002 days).                                                                                                   Time: 273 of 600 seconds.  Estimated final completion at 18:28:36 (in 0.002 days).                                                                                                   Time: 274 of 600 seconds.  Estimated final completion at 18:28:41 (in 0.002 days).                                                                                                   Time: 275 of 600 seconds.  Estimated final completion at 18:28:34 (in 0.002 days).                                                                                                   Time: 276 of 600 seconds.  Estimated final completion at 18:28:18 (in 0.002 days).                                                                                                   Time: 277 of 600 seconds.  Estimated final completion at 18:28:31 (in 0.002 days).                                                                                                   Time: 278 of 600 seconds.  Estimated final completion at 18:28:36 (in 0.002 days).                                                                                                   Time: 279 of 600 seconds.  Estimated final completion at 18:28:29 (in 0.002 days).                                                                                                   Time: 280 of 600 seconds.  Estimated final completion at 18:28:41 (in 0.002 days).                                                                                                   Time: 281 of 600 seconds.  Estimated final completion at 18:28:41 (in 0.002 days).                                                                                                   Time: 282 of 600 seconds.  Estimated final completion at 18:28:24 (in 0.002 days).                                                                                                   Time: 283 of 600 seconds.  Estimated final completion at 18:28:34 (in 0.002 days).                                                                                                   Time: 284 of 600 seconds.  Estimated final completion at 18:28:31 (in 0.002 days).                                                                                                   Time: 285 of 600 seconds.  Estimated final completion at 18:28:58 (in 0.002 days).                                                                                                   Time: 286 of 600 seconds.  Estimated final completion at 18:28:41 (in 0.002 days).                                                                                                   Time: 287 of 600 seconds.  Estimated final completion at 18:28:29 (in 0.002 days).                                                                                                   Time: 288 of 600 seconds.  Estimated final completion at 18:28:31 (in 0.002 days).                                                                                                   Time: 289 of 600 seconds.  Estimated final completion at 18:28:26 (in 0.002 days).                                                                                                   Time: 290 of 600 seconds.  Estimated final completion at 18:28:43 (in 0.002 days).                                                                                                   Time: 291 of 600 seconds.  Estimated final completion at 18:28:39 (in 0.002 days).                                                                                                   Time: 292 of 600 seconds.  Estimated final completion at 18:28:29 (in 0.002 days).                                                                                                   Time: 293 of 600 seconds.  Estimated final completion at 18:27:43 (in 0.001 days).                                                                                                   Time: 294 of 600 seconds.  Estimated final completion at 18:26:48 (in 0.001 days).                                                                                                   Time: 295 of 600 seconds.  Estimated final completion at 18:26:46 (in 0.001 days).                                                                                                   Time: 296 of 600 seconds.  Estimated final completion at 18:26:46 (in 0.001 days).                                                                                                   Time: 297 of 600 seconds.  Estimated final completion at 18:26:48 (in 0.001 days).                                                                                                   Time: 298 of 600 seconds.  Estimated final completion at 18:26:48 (in 0.001 days).                                                                                                   Time: 299 of 600 seconds.  Estimated final completion at 18:26:48 (in 0.001 days).                                                                                                   Time: 300 of 600 seconds.  Estimated final completion at 18:26:43 (in 0.001 days).                                                                                                   Time: 301 of 600 seconds.  Estimated final completion at 18:26:48 (in 0.001 days).                                                                                                   Time: 302 of 600 seconds.  Estimated final completion at 18:26:46 (in 0.001 days).                                                                                                   Time: 303 of 600 seconds.  Estimated final completion at 18:26:46 (in 0.001 days).                                                                                                   Time: 304 of 600 seconds.  Estimated final completion at 18:26:46 (in 0.001 days).                                                                                                   Time: 305 of 600 seconds.  Estimated final completion at 18:26:46 (in 0.001 days).                                                                                                   Time: 306 of 600 seconds.  Estimated final completion at 18:26:48 (in 0.001 days).                                                                                                   Time: 307 of 600 seconds.  Estimated final completion at 18:26:46 (in 0.001 days).                                                                                                   Time: 308 of 600 seconds.  Estimated final completion at 18:26:46 (in 0.001 days).                                                                                                   Time: 309 of 600 seconds.  Estimated final completion at 18:26:48 (in 0.001 days).                                                                                                   Time: 310 of 600 seconds.  Estimated final completion at 18:26:46 (in 0.001 days).                                                                                                   Time: 311 of 600 seconds.  Estimated final completion at 18:26:46 (in 0.001 days).                                                                                                   Time: 312 of 600 seconds.  Estimated final completion at 18:26:46 (in 0.001 days).                                                                                                   Time: 313 of 600 seconds.  Estimated final completion at 18:26:46 (in 0.001 days).                                                                                                   Time: 314 of 600 seconds.  Estimated final completion at 18:26:48 (in 0.001 days).                                                                                                   Time: 315 of 600 seconds.  Estimated final completion at 18:26:48 (in 0.001 days).                                                                                                   Time: 316 of 600 seconds.  Estimated final completion at 18:26:46 (in 0.001 days).                                                                                                   Time: 317 of 600 seconds.  Estimated final completion at 18:26:46 (in 0.001 days).                                                                                                   Time: 318 of 600 seconds.  Estimated final completion at 18:26:48 (in 0.001 days).                                                                                                   Time: 319 of 600 seconds.  Estimated final completion at 18:26:46 (in 0.001 days).                                                                                                   Time: 320 of 600 seconds.  Estimated final completion at 18:26:46 (in 0.001 days).                                                                                                   Time: 321 of 600 seconds.  Estimated final completion at 18:26:46 (in 0.001 days).                                                                                                   Time: 322 of 600 seconds.  Estimated final completion at 18:26:46 (in 0.001 days).                                                                                                   Time: 323 of 600 seconds.  Estimated final completion at 18:26:48 (in 0.001 days).                                                                                                   Time: 324 of 600 seconds.  Estimated final completion at 18:26:46 (in 0.001 days).                                                                                                   Time: 325 of 600 seconds.  Estimated final completion at 18:26:48 (in 0.001 days).                                                                                                   Time: 326 of 600 seconds.  Estimated final completion at 18:26:46 (in 0.001 days).                                                                                                   Time: 327 of 600 seconds.  Estimated final completion at 18:26:48 (in 0.001 days).                                                                                                   Time: 328 of 600 seconds.  Estimated final completion at 18:26:46 (in 0.001 days).                                                                                                   Time: 329 of 600 seconds.  Estimated final completion at 18:26:46 (in 0.001 days).                                                                                                   Time: 330 of 600 seconds.  Estimated final completion at 18:26:48 (in 0.001 days).                                                                                                   Time: 331 of 600 seconds.  Estimated final completion at 18:26:46 (in 0.001 days).                                                                                                   Time: 332 of 600 seconds.  Estimated final completion at 18:26:46 (in 0.001 days).                                                                                                   Time: 333 of 600 seconds.  Estimated final completion at 18:26:46 (in 0.001 days).                                                                                                   Time: 334 of 600 seconds.  Estimated final completion at 18:26:48 (in 0.001 days).                                                                                                   Time: 335 of 600 seconds.  Estimated final completion at 18:26:46 (in 0.001 days).                                                                                                   Time: 336 of 600 seconds.  Estimated final completion at 18:26:46 (in 0.001 days).                                                                                                   Time: 337 of 600 seconds.  Estimated final completion at 18:26:46 (in 0.001 days).                                                                                                   Time: 338 of 600 seconds.  Estimated final completion at 18:26:46 (in 0.001 days).                                                                                                   Time: 339 of 600 seconds.  Estimated final completion at 18:26:46 (in 0.001 days).                                                                                                   Time: 340 of 600 seconds.  Estimated final completion at 18:26:46 (in 0.001 days).                                                                                                   Time: 341 of 600 seconds.  Estimated final completion at 18:26:48 (in 0.001 days).                                                                                                   Time: 342 of 600 seconds.  Estimated final completion at 18:26:48 (in 0.001 days).                                                                                                   Time: 343 of 600 seconds.  Estimated final completion at 18:26:46 (in 0.001 days).                                                                                                   Time: 344 of 600 seconds.  Estimated final completion at 18:26:46 (in 0.001 days).                                                                                                   Time: 345 of 600 seconds.  Estimated final completion at 18:26:46 (in 0.001 days).                                                                                                   Time: 346 of 600 seconds.  Estimated final completion at 18:26:46 (in 0.001 days).                                                                                                   Time: 347 of 600 seconds.  Estimated final completion at 18:26:46 (in 0.001 days).                                                                                                   Time: 348 of 600 seconds.  Estimated final completion at 18:26:48 (in 0.001 days).                                                                                                   Time: 349 of 600 seconds.  Estimated final completion at 18:26:46 (in 0.001 days).                                                                                                   Time: 350 of 600 seconds.  Estimated final completion at 18:26:46 (in 0.001 days).                                                                                                   Time: 351 of 600 seconds.  Estimated final completion at 18:26:48 (in 0.001 days).                                                                                                   Time: 352 of 600 seconds.  Estimated final completion at 18:26:46 (in 0.001 days).                                                                                                   Time: 353 of 600 seconds.  Estimated final completion at 18:26:46 (in 0.001 days).                                                                                                   Time: 354 of 600 seconds.  Estimated final completion at 18:26:48 (in 0.001 days).                                                                                                   Time: 355 of 600 seconds.  Estimated final completion at 18:26:48 (in 0.001 days).                                                                                                   Time: 356 of 600 seconds.  Estimated final completion at 18:26:46 (in 0.001 days).                                                                                                   Time: 357 of 600 seconds.  Estimated final completion at 18:26:46 (in 0.001 days).                                                                                                   Time: 358 of 600 seconds.  Estimated final completion at 18:26:50 (in 0.001 days).                                                                                                   Time: 359 of 600 seconds.  Estimated final completion at 18:26:46 (in 0.001 days).                                                                                                   Time: 360 of 600 seconds.  Estimated final completion at 18:26:48 (in 0.001 days).                                                                                                   Time: 361 of 600 seconds.  Estimated final completion at 18:26:46 (in 0.001 days).                                                                                                   Time: 362 of 600 seconds.  Estimated final completion at 18:26:46 (in 0.001 days).                                                                                                   Time: 363 of 600 seconds.  Estimated final completion at 18:26:46 (in 0.001 days).                                                                                                   Time: 364 of 600 seconds.  Estimated final completion at 18:26:48 (in 0.001 days).                                                                                                   Time: 365 of 600 seconds.  Estimated final completion at 18:26:46 (in 0.001 days).                                                                                                   Time: 366 of 600 seconds.  Estimated final completion at 18:26:46 (in 0.001 days).                                                                                                   Time: 367 of 600 seconds.  Estimated final completion at 18:26:46 (in 0.001 days).                                                                                                   Time: 368 of 600 seconds.  Estimated final completion at 18:26:48 (in 0.001 days).                                                                                                   Time: 369 of 600 seconds.  Estimated final completion at 18:26:46 (in 0.001 days).                                                                                                   Time: 370 of 600 seconds.  Estimated final completion at 18:26:46 (in 0.000 days).                                                                                                   Time: 371 of 600 seconds.  Estimated final completion at 18:26:46 (in 0.000 days).                                                                                                   Time: 372 of 600 seconds.  Estimated final completion at 18:26:46 (in 0.000 days).                                                                                                   Time: 373 of 600 seconds.  Estimated final completion at 18:26:46 (in 0.000 days).                                                                                                   Time: 374 of 600 seconds.  Estimated final completion at 18:26:46 (in 0.000 days).                                                                                                   Time: 375 of 600 seconds.  Estimated final completion at 18:26:48 (in 0.001 days).                                                                                                   Time: 376 of 600 seconds.  Estimated final completion at 18:26:44 (in 0.000 days).                                                                                                   Time: 377 of 600 seconds.  Estimated final completion at 18:26:48 (in 0.001 days).                                                                                                   Time: 378 of 600 seconds.  Estimated final completion at 18:26:46 (in 0.000 days).                                                                                                   Time: 379 of 600 seconds.  Estimated final completion at 18:26:46 (in 0.000 days).                                                                                                   Time: 380 of 600 seconds.  Estimated final completion at 18:26:46 (in 0.000 days).                                                                                                   Time: 381 of 600 seconds.  Estimated final completion at 18:26:46 (in 0.000 days).                                                                                                   Time: 382 of 600 seconds.  Estimated final completion at 18:26:48 (in 0.000 days).                                                                                                   Time: 383 of 600 seconds.  Estimated final completion at 18:26:46 (in 0.000 days).                                                                                                   Time: 384 of 600 seconds.  Estimated final completion at 18:26:46 (in 0.000 days).                                                                                                   Time: 385 of 600 seconds.  Estimated final completion at 18:26:48 (in 0.000 days).                                                                                                   Time: 386 of 600 seconds.  Estimated final completion at 18:26:46 (in 0.000 days).                                                                                                   Time: 387 of 600 seconds.  Estimated final completion at 18:26:46 (in 0.000 days).                                                                                                   Time: 388 of 600 seconds.  Estimated final completion at 18:26:48 (in 0.000 days).                                                                                                   Time: 389 of 600 seconds.  Estimated final completion at 18:26:46 (in 0.000 days).                                                                                                   Time: 390 of 600 seconds.  Estimated final completion at 18:26:46 (in 0.000 days).                                                                                                   Time: 391 of 600 seconds.  Estimated final completion at 18:26:46 (in 0.000 days).                                                                                                   Time: 392 of 600 seconds.  Estimated final completion at 18:26:46 (in 0.000 days).                                                                                                   Time: 393 of 600 seconds.  Estimated final completion at 18:26:46 (in 0.000 days).                                                                                                   Time: 394 of 600 seconds.  Estimated final completion at 18:26:48 (in 0.000 days).                                                                                                   Time: 395 of 600 seconds.  Estimated final completion at 18:26:46 (in 0.000 days).                                                                                                   Time: 396 of 600 seconds.  Estimated final completion at 18:26:48 (in 0.000 days).                                                                                                   Time: 397 of 600 seconds.  Estimated final completion at 18:26:46 (in 0.000 days).                                                                                                   Time: 398 of 600 seconds.  Estimated final completion at 18:26:46 (in 0.000 days).                                                                                                   Time: 399 of 600 seconds.  Estimated final completion at 18:26:46 (in 0.000 days).                                                                                                   Time: 400 of 600 seconds.  Estimated final completion at 18:26:46 (in 0.000 days).                                                                                                   Time: 401 of 600 seconds.  Estimated final completion at 18:26:46 (in 0.000 days).                                                                                                   Time: 402 of 600 seconds.  Estimated final completion at 18:26:46 (in 0.000 days).                                                                                                   Time: 403 of 600 seconds.  Estimated final completion at 18:26:46 (in 0.000 days).                                                                                                   Time: 404 of 600 seconds.  Estimated final completion at 18:26:47 (in 0.000 days).                                                                                                   Time: 405 of 600 seconds.  Estimated final completion at 18:26:46 (in 0.000 days).                                                                                                   Time: 406 of 600 seconds.  Estimated final completion at 18:26:47 (in 0.000 days).                                                                                                   Time: 407 of 600 seconds.  Estimated final completion at 18:26:46 (in 0.000 days).                                                                                                   Time: 408 of 600 seconds.  Estimated final completion at 18:26:46 (in 0.000 days).                                                                                                   Time: 409 of 600 seconds.  Estimated final completion at 18:26:46 (in 0.000 days).                                                                                                   Time: 410 of 600 seconds.  Estimated final completion at 18:26:47 (in 0.000 days).                                                                                                   Time: 411 of 600 seconds.  Estimated final completion at 18:26:46 (in 0.000 days).                                                                                                   Time: 412 of 600 seconds.  Estimated final completion at 18:26:46 (in 0.000 days).                                                                                                   Time: 413 of 600 seconds.  Estimated final completion at 18:26:47 (in 0.000 days).                                                                                                   Time: 414 of 600 seconds.  Estimated final completion at 18:26:46 (in 0.000 days).                                                                                                   Time: 415 of 600 seconds.  Estimated final completion at 18:26:46 (in 0.000 days).                                                                                                   Time: 416 of 600 seconds.  Estimated final completion at 18:26:46 (in 0.000 days).                                                                                                   Time: 417 of 600 seconds.  Estimated final completion at 18:26:46 (in 0.000 days).                                                                                                   Time: 418 of 600 seconds.  Estimated final completion at 18:26:46 (in 0.000 days).                                                                                                   Time: 419 of 600 seconds.  Estimated final completion at 18:26:47 (in 0.000 days).                                                                                                   Time: 420 of 600 seconds.  Estimated final completion at 18:26:46 (in 0.000 days).                                                                                                   Time: 421 of 600 seconds.  Estimated final completion at 18:26:46 (in 0.000 days).                                                                                                   Time: 422 of 600 seconds.  Estimated final completion at 18:26:46 (in 0.000 days).                                                                                                   Time: 423 of 600 seconds.  Estimated final completion at 18:26:47 (in 0.000 days).                                                                                                   Time: 424 of 600 seconds.  Estimated final completion at 18:26:46 (in 0.000 days).                                                                                                   Time: 425 of 600 seconds.  Estimated final completion at 18:26:46 (in 0.000 days).                                                                                                   Time: 426 of 600 seconds.  Estimated final completion at 18:26:46 (in 0.000 days).                                                                                                   Time: 427 of 600 seconds.  Estimated final completion at 18:26:46 (in 0.000 days).                                                                                                   Time: 428 of 600 seconds.  Estimated final completion at 18:26:46 (in 0.000 days).                                                                                                   Time: 429 of 600 seconds.  Estimated final completion at 18:26:46 (in 0.000 days).                                                                                 
[...]
         Time: 493 of 600 seconds.  Estimated final completion at 18:26:46 (in 0.000 days).                                                                                                   Time: 494 of 600 seconds.  Estimated final completion at 18:26:46 (in 0.000 days).                                                                                                   Time: 495 of 600 seconds.  Estimated final completion at 18:26:46 (in 0.000 days).                                                                                                   Time: 496 of 600 seconds.  Estimated final completion at 18:26:46 (in 0.000 days).                                                                                                   Time: 497 of 600 seconds.  Estimated final completion at 18:26:46 (in 0.000 days).                                                                                                   Time: 498 of 600 seconds.  Estimated final completion at 18:26:46 (in 0.000 days).                                                                                                   Time: 499 of 600 seconds.  Estimated final completion at 18:26:46 (in 0.000 days).                                                                                                   Time: 500 of 600 seconds.  Estimated final completion at 18:26:46 (in 0.000 days).                                                                                                   Time: 501 of 600 seconds.  Estimated final completion at 18:26:46 (in 0.000 days).                                                                                                   Time: 502 of 600 seconds.  Estimated final completion at 18:26:46 (in 0.000 days).                                                                                                   Time: 503 of 600 seconds.  Estimated final completion at 18:26:47 (in 0.000 days).                                                                                                   Time: 504 of 600 seconds.  Estimated final completion at 18:26:46 (in 0.000 days).                                                                                                   Time: 505 of 600 seconds.  Estimated final completion at 18:26:46 (in 0.000 days).                                                                                                   Time: 506 of 600 seconds.  Estimated final completion at 18:26:46 (in 0.000 days).                                                                                                   Time: 507 of 600 seconds.  Estimated final completion at 18:26:46 (in 0.000 days).                                                                                                   Time: 508 of 600 seconds.  Estimated final completion at 18:26:46 (in 0.000 days).                                                                                                   Time: 509 of 600 seconds.  Estimated final completion at 18:26:46 (in 0.000 days).                                                                                                   Time: 510 of 600 seconds.  Estimated final completion at 18:26:46 (in 0.000 days).                                                                                                   Time: 511 of 600 seconds.  Estimated final completion at 18:26:46 (in 0.000 days).                                                                                                   Time: 512 of 600 seconds.  Estimated final completion at 18:26:46 (in 0.000 days).                                                                                                   Time: 513 of 600 seconds.  Estimated final completion at 18:26:46 (in 0.000 days).                                                                                                   Time: 514 of 600 seconds.  Estimated final completion at 18:26:45 (in 0.000 days).                                                                                                   Time: 515 of 600 seconds.  Estimated final completion at 18:26:46 (in 0.000 days).                                                                                                   Time: 516 of 600 seconds.  Estimated final completion at 18:26:46 (in 0.000 days).                                                                                                   Time: 517 of 600 seconds.  Estimated final completion at 18:26:46 (in 0.000 days).                                                                                                   Time: 518 of 600 seconds.  Estimated final completion at 18:26:46 (in 0.000 days).                                                                                                   Time: 519 of 600 seconds.  Estimated final completion at 18:26:46 (in 0.000 days).                                                                                                   Time: 520 of 600 seconds.  Estimated final completion at 18:26:47 (in 0.000 days).                                                                                                   Time: 521 of 600 seconds.  Estimated final completion at 18:26:46 (in 0.000 days).                                                                                                   Time: 522 of 600 seconds.  Estimated final completion at 18:26:46 (in 0.000 days).                                                                                                   Time: 523 of 600 seconds.  Estimated final completion at 18:26:45 (in 0.000 days).                                                                                                   Time: 524 of 600 seconds.  Estimated final completion at 18:26:46 (in 0.000 days).                                                                                                   Time: 525 of 600 seconds.  Estimated final completion at 18:26:46 (in 0.000 days).                                                                                                   Time: 526 of 600 seconds.  Estimated final completion at 18:26:46 (in 0.000 days).                                                                                                   Time: 527 of 600 seconds.  Estimated final completion at 18:26:45 (in 0.000 days).                                                                                                   Time: 528 of 600 seconds.  Estimated final completion at 18:26:46 (in 0.000 days).                                                                                                   Time: 529 of 600 seconds.  Estimated final completion at 18:26:47 (in 0.000 days).                                                                                                   Time: 530 of 600 seconds.  Estimated final completion at 18:26:46 (in 0.000 days).                                                                                                   Time: 531 of 600 seconds.  Estimated final completion at 18:26:46 (in 0.000 days).                                                                                                   Time: 532 of 600 seconds.  Estimated final completion at 18:26:46 (in 0.000 days).                                                                                                   Time: 533 of 600 seconds.  Estimated final completion at 18:26:46 (in 0.000 days).                                                                                                   Time: 534 of 600 seconds.  Estimated final completion at 18:26:46 (in 0.000 days).                                                                                                   Time: 535 of 600 seconds.  Estimated final completion at 18:26:46 (in 0.000 days).                                                                                                   Time: 536 of 600 seconds.  Estimated final completion at 18:26:46 (in 0.000 days).                                                                                                   Time: 537 of 600 seconds.  Estimated final completion at 18:26:46 (in 0.000 days).                                                                                                   Time: 538 of 600 seconds.  Estimated final completion at 18:26:47 (in 0.000 days).                                                                                                   Time: 539 of 600 seconds.  Estimated final completion at 18:26:46 (in 0.000 days).                                                                                                   Time: 540 of 600 seconds.  Estimated final completion at 18:26:46 (in 0.000 days).                                                                                                   Time: 541 of 600 seconds.  Estimated final completion at 18:26:46 (in 0.000 days).                                                                                                   Time: 542 of 600 seconds.  Estimated final completion at 18:26:46 (in 0.000 days).                                                                                                   Time: 543 of 600 seconds.  Estimated final completion at 18:26:46 (in 0.000 days).                                                                                                   Time: 544 of 600 seconds.  Estimated final completion at 18:26:46 (in 0.000 days).                                                                                                   Time: 545 of 600 seconds.  Estimated final completion at 18:26:46 (in 0.000 days).                                                                                                   Time: 546 of 600 seconds.  Estimated final completion at 18:26:46 (in 0.000 days).                                                                                                   Time: 547 of 600 seconds.  Estimated final completion at 18:26:46 (in 0.000 days).                                                                                                   Time: 548 of 600 seconds.  Estimated final completion at 18:26:46 (in 0.000 days).                                                                                                   Time: 549 of 600 seconds.  Estimated final completion at 18:26:46 (in 0.000 days).                                                                                                   Time: 550 of 600 seconds.  Estimated final completion at 18:26:46 (in 0.000 days).                                                                                                   Time: 551 of 600 seconds.  Estimated final completion at 18:26:46 (in 0.000 days).                                                                                                   Time: 552 of 600 seconds.  Estimated final completion at 18:26:46 (in 0.000 days).                                                                                                   Time: 553 of 600 seconds.  Estimated final completion at 18:26:46 (in 0.000 days).                                                                                                   Time: 554 of 600 seconds.  Estimated final completion at 18:26:46 (in 0.000 days).                                                                                                   Time: 555 of 600 seconds.  Estimated final completion at 18:26:46 (in 0.000 days).                                                                                                   Time: 556 of 600 seconds.  Estimated final completion at 18:26:46 (in 0.000 days).                                                                                                   Time: 557 of 600 seconds.  Estimated final completion at 18:26:46 (in 0.000 days).                                                                                                   Time: 558 of 600 seconds.  Estimated final completion at 18:26:46 (in 0.000 days).                                                                                                   Time: 559 of 600 seconds.  Estimated final completion at 18:26:46 (in 0.000 days).                                                                                                   Time: 560 of 600 seconds.  Estimated final completion at 18:26:46 (in 0.000 days).                                                                                                   Time: 561 of 600 seconds.  Estimated final completion at 18:26:46 (in 0.000 days).                                                                                                   Time: 562 of 600 seconds.  Estimated final completion at 18:26:46 (in 0.000 days).                                                                                                   Time: 563 of 600 seconds.  Estimated final completion at 18:26:46 (in 0.000 days).                                                                                                   Time: 564 of 600 seconds.  Estimated final completion at 18:26:46 (in 0.000 days).                                                                                                   Time: 565 of 600 seconds.  Estimated final completion at 18:26:46 (in 0.000 days).                                                                                                   Time: 566 of 600 seconds.  Estimated final completion at 18:26:46 (in 0.000 days).                                                                                                   Time: 567 of 600 seconds.  Estimated final completion at 18:26:46 (in 0.000 days).                                                                                                   Time: 568 of 600 seconds.  Estimated final completion at 18:26:46 (in 0.000 days).                                                                                                   Time: 569 of 600 seconds.  Estimated final completion at 18:26:46 (in 0.000 days).                                                                                                   Time: 570 of 600 seconds.  Estimated final completion at 18:26:46 (in 0.000 days).                                                                                                   Time: 571 of 600 seconds.  Estimated final completion at 18:26:46 (in 0.000 days).                                                                                                   Time: 572 of 600 seconds.  Estimated final completion at 18:26:46 (in 0.000 days).                                                                                                   Time: 573 of 600 seconds.  Estimated final completion at 18:26:46 (in 0.000 days).                                                                                                   Time: 574 of 600 seconds.  Estimated final completion at 18:26:46 (in 0.000 days).                                                                                                   Time: 575 of 600 seconds.  Estimated final completion at 18:26:46 (in 0.000 days).                                                                                                   Time: 576 of 600 seconds.  Estimated final completion at 18:26:46 (in 0.000 days).                                                                                                   Time: 577 of 600 seconds.  Estimated final completion at 18:26:46 (in 0.000 days).                                                                                                   Time: 578 of 600 seconds.  Estimated final completion at 18:26:46 (in 0.000 days).                                                                                                   Time: 579 of 600 seconds.  Estimated final completion at 18:26:46 (in 0.000 days).                                                                                                   Time: 580 of 600 seconds.  Estimated final completion at 18:26:46 (in 0.000 days).                                                                                                   Time: 581 of 600 seconds.  Estimated final completion at 18:26:46 (in 0.000 days).                                                                                                   Time: 582 of 600 seconds.  Estimated final completion at 18:26:46 (in 0.000 days).                                                                                                   Time: 583 of 600 seconds.  Estimated final completion at 18:26:46 (in 0.000 days).                                                                                                   Time: 584 of 600 seconds.  Estimated final completion at 18:26:46 (in 0.000 days).                                                                                                   Time: 585 of 600 seconds.  Estimated final completion at 18:26:46 (in 0.000 days).                                                                                                   Time: 586 of 600 seconds.  Estimated final completion at 18:26:46 (in 0.000 days).                                                                                                   Time: 587 of 600 seconds.  Estimated final completion at 18:26:46 (in 0.000 days).                                                                                                   Time: 588 of 600 seconds.  Estimated final completion at 18:26:46 (in 0.000 days).                                                                                                   Time: 589 of 600 seconds.  Estimated final completion at 18:26:46 (in 0.000 days).                                                                                                   Time: 590 of 600 seconds.  Estimated final completion at 18:26:46 (in 0.000 days).                                                                                                   Time: 591 of 600 seconds.  Estimated final completion at 18:26:46 (in 0.000 days).                                                                                                   Time: 592 of 600 seconds.  Estimated final completion at 18:26:46 (in 0.000 days).                                                                                                   Time: 593 of 600 seconds.  Estimated final completion at 18:26:46 (in 0.000 days).                                                                                                   Time: 594 of 600 seconds.  Estimated final completion at 18:26:46 (in 0.000 days).                                                                                                   Time: 595 of 600 seconds.  Estimated final completion at 18:26:46 (in 0.000 days).                                                                                                   Time: 596 of 600 seconds.  Estimated final completion at 18:26:46 (in 0.000 days).                                                                                                   Time: 597 of 600 seconds.  Estimated final completion at 18:26:46 (in 0.000 days).                                                                                                   Time: 598 of 600 seconds.  Estimated final completion at 18:26:46 (in 0.000 days).                                                                                                   Time: 599 of 600 seconds.  Estimated final completion at 18:26:46 (in 0.000 days).                                                                                                   Time: 600 of 600 seconds.  Estimated final completion at 18:26:46 (in 0.000 days).                                                                                                  

 Total Real Time:       3.4124 minutes
 Total CPU Time:        3.2911 minutes
 Simulation CPU Time:   3.2872 minutes
 Simulated Time:        10 minutes
 Time Ratio (Sim/CPU):  3.0421

 OpenFAST terminated normally.

