
**************************************************************************************************
OpenFAST

Copyright (C) 2025 National Renewable Energy Laboratory
Copyright (C) 2025 Envision Energy USA LTD

This program is licensed under Apache License Version 2.0 and comes with ABSOLUTELY NO WARRANTY.
See the "LICENSE" file distributed with this software for details.
**************************************************************************************************

OpenFAST-v4.1.2
Compile Info:
 - Compiler: Intel(R) Fortran Compiler 2021
 - Architecture: 64 bit
 - Precision: single
 - OpenMP: No
 - Date: Aug 06 2025
 - Time: 19:22:48
Execution Info:
 - Date: 05/03/2026
 - Time: 13:59:42-0700

OpenFAST input file heading:
    Generated with OpenFAST_IO

 Running ElastoDyn.
 Running SeaState.
  Setting WaveTMax to TMax since WaveMod = 0
 Running HydroDyn.
 Reading in WAMIT output with root name
 "C:\Users\xlama\OneDrive\Documents\buoy\HSP_code\tests\fixtures\openfast\oc4_deepcwind\baseline\5
 MW_Baseline\HydroData\marin_semi".
 Computing radiation impulse response functions and wave diffraction forces.

FAST_InitializeAll:ED_Init:ED_ReadInput:ReadBladeInputs:ReadBladeFile:The ElastoDyn Blade file,
.\s1_static_eq_ElastoDynBlade.dat, DISTRIBUTED BLADE PROPERTIES table contains the PitchAxis
column.  This column is unused and will be removed in future releases
FAST_InitializeAll:SeaSt_Init:SeaStateInput_ProcessInitData:WvHiCOff adjusted to 1.57080E-02
rad/s, based on WaveDT.

 Time: 0 of 200 seconds.                                                                                                   Time: 1 of 200 seconds.  Estimated final completion at 14:00:24 (in 0.000 days).                                                                                                   Time: 2 of 200 seconds.  Estimated final completion at 14:00:22 (in 0.000 days).                                                                                                   Time: 3 of 200 seconds.  Estimated final completion at 14:00:21 (in 0.000 days).                                                                                                   Time: 4 of 200 seconds.  Estimated final completion at 14:00:22 (in 0.000 days).                                                                                                   Time: 5 of 200 seconds.  Estimated final completion at 14:00:21 (in 0.000 days).                                                                                                   Time: 6 of 200 seconds.  Estimated final completion at 14:00:19 (in 0.000 days).                                                                                                   Time: 7 of 200 seconds.  Estimated final completion at 14:00:20 (in 0.000 days).                                                                                                   Time: 8 of 200 seconds.  Estimated final completion at 14:00:19 (in 0.000 days).                                                                                                   Time: 9 of 200 seconds.  Estimated final completion at 14:00:19 (in 0.000 days).                                                                                                   Time: 10 of 200 seconds.  Estimated final completion at 14:00:21 (in 0.000 days).                                                                                                   Time: 11 of 200 seconds.  Estimated final completion at 14:00:20 (in 0.000 days).                                                                                                   Time: 12 of 200 seconds.  Estimated final completion at 14:00:20 (in 0.000 days).                                                                                                   Time: 13 of 200 seconds.  Estimated final completion at 14:00:19 (in 0.000 days).                                                                                                   Time: 14 of 200 seconds.  Estimated final completion at 14:00:19 (in 0.000 days).                                                                                                   Time: 15 of 200 seconds.  Estimated final completion at 14:00:19 (in 0.000 days).                                                                                                   Time: 16 of 200 seconds.  Estimated final completion at 14:00:18 (in 0.000 days).                                                                                                   Time: 17 of 200 seconds.  Estimated final completion at 14:00:18 (in 0.000 days).                                                                                                   Time: 18 of 200 seconds.  Estimated final completion at 14:00:19 (in 0.000 days).                                                                                                   Time: 19 of 200 seconds.  Estimated final completion at 14:00:19 (in 0.000 days).                                                                                                   Time: 20 of 200 seconds.  Estimated final completion at 14:00:19 (in 0.000 days).                                                                                                   Time: 21 of 200 seconds.  Estimated final completion at 14:00:18 (in 0.000 days).                                                                                                   Time: 22 of 200 seconds.  Estimated final completion at 14:00:19 (in 0.000 days).                                                                                                   Time: 23 of 200 seconds.  Estimated final completion at 14:00:20 (in 0.000 days).                                                                                                   Time: 24 of 200 seconds.  Estimated final completion at 14:00:20 (in 0.000 days).                                                                                                   Time: 25 of 200 seconds.  Estimated final completion at 14:00:22 (in 0.000 days).                                                                                                   Time: 26 of 200 seconds.  Estimated final completion at 14:00:20 (in 0.000 days).                                                                                                   Time: 27 of 200 seconds.  Estimated final completion at 14:00:20 (in 0.000 days).                                                                                                   Time: 28 of 200 seconds.  Estimated final completion at 14:00:19 (in 0.000 days).                                                                                                   Time: 29 of 200 seconds.  Estimated final completion at 14:00:20 (in 0.000 days).                                                                                                   Time: 30 of 200 seconds.  Estimated final completion at 14:00:19 (in 0.000 days).                                                                                                   Time: 31 of 200 seconds.  Estimated final completion at 14:00:20 (in 0.000 days).                                                                                                   Time: 32 of 200 seconds.  Estimated final completion at 14:00:19 (in 0.000 days).                                                                                                   Time: 33 of 200 seconds.  Estimated final completion at 14:00:19 (in 0.000 days).                                                                                                   Time: 34 of 200 seconds.  Estimated final completion at 14:00:19 (in 0.000 days).                                                                                                   Time: 35 of 200 seconds.  Estimated final completion at 14:00:20 (in 0.000 days).                                                                                                   Time: 36 of 200 seconds.  Estimated final completion at 14:00:18 (in 0.000 days).                                                                                                   Time: 37 of 200 seconds.  Estimated final completion at 14:00:20 (in 0.000 days).                                                                                                   Time: 38 of 200 seconds.  Estimated final completion at 14:00:20 (in 0.000 days).                                                                                                   Time: 39 of 200 seconds.  Estimated final completion at 14:00:20 (in 0.000 days).                                                                                                   Time: 40 of 200 seconds.  Estimated final completion at 14:00:20 (in 0.000 days).                                                                                                   Time: 41 of 200 seconds.  Estimated final completion at 14:00:20 (in 0.000 days).                                                                                                   Time: 42 of 200 seconds.  Estimated final completion at 14:00:21 (in 0.000 days).                                                                                                   Time: 43 of 200 seconds.  Estimated final completion at 14:00:20 (in 0.000 days).                                                                                                   Time: 44 of 200 seconds.  Estimated final completion at 14:00:20 (in 0.000 days).                                                                                                   Time: 45 of 200 seconds.  Estimated final completion at 14:00:21 (in 0.000 days).                                                                                                   Time: 46 of 200 seconds.  Estimated final completion at 14:00:20 (in 0.000 days).                                                                                                   Time: 47 of 200 seconds.  Estimated final completion at 14:00:20 (in 0.000 days).                                                                                                   Time: 48 of 200 seconds.  Estimated final completion at 14:00:20 (in 0.000 days).                                                                                                   Time: 49 of 200 seconds.  Estimated final completion at 14:00:19 (in 0.000 days).                                                                                                   Time: 50 of 200 seconds.  Estimated final completion at 14:00:20 (in 0.000 days).                                                                                                   Time: 51 of 200 seconds.  Estimated final completion at 14:00:20 (in 0.000 days).                                                                                                   Time: 52 of 200 seconds.  Estimated final completion at 14:00:20 (in 0.000 days).                                                                                                   Time: 53 of 200 seconds.  Estimated final completion at 14:00:20 (in 0.000 days).                                                                                                   Time: 54 of 200 seconds.  Estimated final completion at 14:00:20 (in 0.000 days).                                                                                                   Time: 55 of 200 seconds.  Estimated final completion at 14:00:20 (in 0.000 days).                                                                                                   Time: 56 of 200 seconds.  Estimated final completion at 14:00:20 (in 0.000 days).                                                                                                   Time: 57 of 200 seconds.  Estimated final completion at 14:00:20 (in 0.000 days).                                                                                                   Time: 58 of 200 seconds.  Estimated final completion at 14:00:20 (in 0.000 days).                                                                                                   Time: 59 of 200 seconds.  Estimated final completion at 14:00:20 (in 0.000 days).                                                                                                   Time: 60 of 200 seconds.  Estimated final completion at 14:00:20 (in 0.000 days).                                                                                                   Time: 61 of 200 seconds.  Estimated final completion at 14:00:20 (in 0.000 days).                                                                                                   Time: 62 of 200 seconds.  Estimated final completion at 14:00:20 (in 0.000 days).                                                                                                   Time: 63 of 200 seconds.  Estimated final completion at 14:00:20 (in 0.000 days).                                                                                                   Time: 64 of 200 seconds.  Estimated final completion at 14:00:20 (in 0.000 days).                                                                                                   Time: 65 of 200 seconds.  Estimated final completion at 14:00:20 (in 0.000 days).                                                                                                   Time: 66 of 200 seconds.  Estimated final completion at 14:00:20 (in 0.000 days).                                                                                                   Time: 67 of 200 seconds.  Estimated final completion at 14:00:20 (in 0.000 days).                                                                                                   Time: 68 of 200 seconds.  Estimated final completion at 14:00:20 (in 0.000 days).                                                                                                   Time: 69 of 200 seconds.  Estimated final completion at 14:00:20 (in 0.000 days).                                                                                                   Time: 70 of 200 seconds.  Estimated final completion at 14:00:20 (in 0.000 days).                                                                                                   Time: 71 of 200 seconds.  Estimated final completion at 14:00:20 (in 0.000 days).                                                                                                   Time: 72 of 200 seconds.  Estimated final completion at 14:00:20 (in 0.000 days).                                                                                                   Time: 73 of 200 seconds.  Estimated final completion at 14:00:20 (in 0.000 days).                                                                                                   Time: 74 of 200 seconds.  Estimated final completion at 14:00:20 (in 0.000 days).                                                                                                   Time: 75 of 200 seconds.  Estimated final completion at 14:00:20 (in 0.000 days).                                                                                                   Time: 76 of 200 seconds.  Estimated final completion at 14:00:20 (in 0.000 days).                                                                                                   Time: 77 of 200 seconds.  Estimated final completion at 14:00:20 (in 0.000 days).                                                                                                   Time: 78 of 200 seconds.  Estimated final completion at 14:00:20 (in 0.000 days).                                                                                                   Time: 79 of 200 seconds.  Estimated final completion at 14:00:20 (in 0.000 days).                                                                                                   Time: 80 of 200 seconds.  Estimated final completion at 14:00:20 (in 0.000 days).                                                                                                   Time: 81 of 200 seconds.  Estimated final completion at 14:00:20 (in 0.000 days).                                                                                                   Time: 82 of 200 seconds.  Estimated final completion at 14:00:20 (in 0.000 days).                                                                                                   Time: 83 of 200 seconds.  Estimated final completion at 14:00:21 (in 0.000 days).                                                                                                   Time: 84 of 200 seconds.  Estimated final completion at 14:00:21 (in 0.000 days).                                                                                                   Time: 85 of 200 seconds.  Estimated final completion at 14:00:21 (in 0.000 days).                                                                                                   Time: 86 of 200 seconds.  Estimated final completion at 14:00:20 (in 0.000 days).                                                                                                   Time: 87 of 200 seconds.  Estimated final completion at 14:00:20 (in 0.000 days).                                                                                                   Time: 88 of 200 seconds.  Estimated final completion at 14:00:20 (in 0.000 days).                                                                                                   Time: 89 of 200 seconds.  Estimated final completion at 14:00:20 (in 0.000 days).                                                                                                   Time: 90 of 200 seconds.  Estimated final completion at 14:00:20 (in 0.000 days).                                                                                                   Time: 91 of 200 seconds.  Estimated final completion at 14:00:20 (in 0.000 days).                                                                                                   Time: 92 of 200 seconds.  Estimated final completion at 14:00:20 (in 0.000 days).                                                                                                   Time: 93 of 200 seconds.  Estimated final completion at 14:00:21 (in 0.000 days).                                                                                                   Time: 94 of 200 seconds.  Estimated final completion at 14:00:20 (in 0.000 days).                                                                                                   Time: 95 of 200 seconds.  Estimated final completion at 14:00:20 (in 0.000 days).                                                                                                   Time: 96 of 200 seconds.  Estimated final completion at 14:00:20 (in 0.000 days).                                                                                                   Time: 97 of 200 seconds.  Estimated final completion at 14:00:20 (in 0.000 days).                                                                                                   Time: 98 of 200 seconds.  Estimated final completion at 14:00:21 (in 0.000 days).                                                                                                   Time: 99 of 200 seconds.  Estimated final completion at 14:00:20 (in 0.000 days).                                                                                                   Time: 100 of 200 seconds.  Estimated final completion at 14:00:20 (in 0.000 days).                                                                                                   Time: 101 of 200 seconds.  Estimated final completion at 14:00:20 (in 0.000 days).                                                                                                   Time: 102 of 200 seconds.  Estimated final completion at 14:00:20 (in 0.000 days).                                                                                                   Time: 103 of 200 seconds.  Estimated final completion at 14:00:20 (in 0.000 days).                                                                                                   Time: 104 of 200 seconds.  Estimated final completion at 14:00:20 (in 0.000 days).                                                                                                   Time: 105 of 200 seconds.  Estimated final completion at 14:00:20 (in 0.000 days).                                                                                                   Time: 106 of 200 seconds.  Estimated final completion at 14:00:20 (in 0.000 days).                                                                                                   Time: 107 of 200 seconds.  Estimated final completion at 14:00:20 (in 0.000 days).                                                                                                   Time: 108 of 200 seconds.  Estimated final completion at 14:00:20 (in 0.000 days).                                                                                                   Time: 109 of 200 seconds.  Estimated final completion at 14:00:20 (in 0.000 days).                                                                                                   Time: 110 of 200 seconds.  Estimated final completion at 14:00:20 (in 0.000 days).                                                                                                   Time: 111 of 200 seconds.  Estimated final completion at 14:00:20 (in 0.000 days).                                                                                                   Time: 112 of 200 seconds.  Estimated final completion at 14:00:20 (in 0.000 days).                                                                                                   Time: 113 of 200 seconds.  Estimated final completion at 14:00:20 (in 0.000 days).                                                                                                   Time: 114 of 200 seconds.  Estimated final completion at 14:00:20 (in 0.000 days).                                                                                                   Time: 115 of 200 seconds.  Estimated final completion at 14:00:21 (in 0.000 days).                                                                                                   Time: 116 of 200 seconds.  Estimated final completion at 14:00:20 (in 0.000 days).                                                                                                   Time: 117 of 200 seconds.  Estimated final completion at 14:00:20 (in 0.000 days).                                                                                                   Time: 118 of 200 seconds.  Estimated final completion at 14:00:20 (in 0.000 days).                                                                                                   Time: 119 of 200 seconds.  Estimated final completion at 14:00:20 (in 0.000 days).                                                                                                   Time: 120 of 200 seconds.  Estimated final completion at 14:00:20 (in 0.000 days).                                                                                                   Time: 121 of 200 seconds.  Estimated final completion at 14:00:20 (in 0.000 days).                                                                                                   Time: 122 of 200 seconds.  Estimated final completion at 14:00:20 (in 0.000 days).                                                                                                   Time: 123 of 200 seconds.  Estimated final completion at 14:00:20 (in 0.000 days).                                                                                                   Time: 124 of 200 seconds.  Estimated final completion at 14:00:20 (in 0.000 days).                                                                                                   Time: 125 of 200 seconds.  Estimated final completion at 14:00:21 (in 0.000 days).                                                                                                   Time: 126 of 200 seconds.  Estimated final completion at 14:00:20 (in 0.000 days).                                                                                                   Time: 127 of 200 seconds.  Estimated final completion at 14:00:20 (in 0.000 days).                                                                                                   Time: 128 of 200 seconds.  Estimated final completion at 14:00:20 (in 0.000 days).                                                                                                   Time: 129 of 200 seconds.  Estimated final completion at 14:00:20 (in 0.000 days).                                                                                                   Time: 130 of 200 seconds.  Estimated final completion at 14:00:20 (in 0.000 days).                                                                                                   Time: 131 of 200 seconds.  Estimated final completion at 14:00:20 (in 0.000 days).                                                                                                   Time: 132 of 200 seconds.  Estimated final completion at 14:00:21 (in 0.000 days).                                                                                                   Time: 133 of 200 seconds.  Estimated final completion at 14:00:20 (in 0.000 days).                                                                                                   Time: 134 of 200 seconds.  Estimated final completion at 14:00:21 (in 0.000 days).                                                                                                   Time: 135 of 200 seconds.  Estimated final completion at 14:00:21 (in 0.000 days).                                                                                                   Time: 136 of 200 seconds.  Estimated final completion at 14:00:21 (in 0.000 days).                                                                                                   Time: 137 of 200 seconds.  Estimated final completion at 14:00:21 (in 0.000 days).                                                                                                   Time: 138 of 200 seconds.  Estimated final completion at 14:00:21 (in 0.000 days).                                                                                                   Time: 139 of 200 seconds.  Estimated final completion at 14:00:21 (in 0.000 days).                                                                                                   Time: 140 of 200 seconds.  Estimated final completion at 14:00:20 (in 0.000 days).                                                                                                   Time: 141 of 200 seconds.  Estimated final completion at 14:00:21 (in 0.000 days).                                                                                                   Time: 142 of 200 seconds.  Estimated final completion at 14:00:21 (in 0.000 days).                                                                                                   Time: 143 of 200 seconds.  Estimated final completion at 14:00:21 (in 0.000 days).                                                                                                   Time: 144 of 200 seconds.  Estimated final completion at 14:00:21 (in 0.000 days).                                                                                                   Time: 145 of 200 seconds.  Estimated final completion at 14:00:21 (in 0.000 days).                                                                                                   Time: 146 of 200 seconds.  Estimated final completion at 14:00:21 (in 0.000 days).                                                                                                   Time: 147 of 200 seconds.  Estimated final completion at 14:00:21 (in 0.000 days).                                                                                                   Time: 148 of 200 seconds.  Estimated final completion at 14:00:21 (in 0.000 days).                                                                                                   Time: 149 of 200 seconds.  Estimated final completion at 14:00:20 (in 0.000 days).                                                                                                   Time: 150 of 200 seconds.  Estimated final completion at 14:00:21 (in 0.000 days).                                                                                                   Time: 151 of 200 seconds.  Estimated final completion at 14:00:20 (in 0.000 days).                                                                                                   Time: 152 of 200 seconds.  Estimated final completion at 14:00:21 (in 0.000 days).                                                                                                   Time: 153 of 200 seconds.  Estimated final completion at 14:00:21 (in 0.000 days).                                                                                                   Time: 154 of 200 seconds.  Estimated final completion at 14:00:21 (in 0.000 days).                                                                                                   Time: 155 of 200 seconds.  Estimated final completion at 14:00:21 (in 0.000 days).                                                                                                   Time: 156 of 200 seconds.  Estimated final completion at 14:00:20 (in 0.000 days).                                                                                                   Time: 157 of 200 seconds.  Estimated final completion at 14:00:20 (in 0.000 days).                                                                                                   Time: 158 of 200 seconds.  Estimated final completion at 14:00:20 (in 0.000 days).                                                                                                   Time: 159 of 200 seconds.  Estimated final completion at 14:00:20 (in 0.000 days).                                                                                                   Time: 160 of 200 seconds.  Estimated final completion at 14:00:20 (in 0.000 days).                                                                                                   Time: 161 of 200 seconds.  Estimated final completion at 14:00:21 (in 0.000 days).                                                                                                   Time: 162 of 200 seconds.  Estimated final completion at 14:00:20 (in 0.000 days).                                                                                                   Time: 163 of 200 seconds.  Estimated final completion at 14:00:20 (in 0.000 days).                                                                                                   Time: 164 of 200 seconds.  Estimated final completion at 14:00:21 (in 0.000 days).                                                                                                   Time: 165 of 200 seconds.  Estimated final completion at 14:00:21 (in 0.000 days).                                                                                                   Time: 166 of 200 seconds.  Estimated final completion at 14:00:20 (in 0.000 days).                                                                                                   Time: 167 of 200 seconds.  Estimated final completion at 14:00:21 (in 0.000 days).                                                                                                   Time: 168 of 200 seconds.  Estimated final completion at 14:00:20 (in 0.000 days).                                                                                                   Time: 169 of 200 seconds.  Estimated final completion at 14:00:20 (in 0.000 days).                                                                                                   Time: 170 of 200 seconds.  Estimated final completion at 14:00:20 (in 0.000 days).                                                                                                   Time: 171 of 200 seconds.  Estimated final completion at 14:00:20 (in 0.000 days).                                                                                                   Time: 172 of 200 seconds.  Estimated final completion at 14:00:20 (in 0.000 days).                                                                                                   Time: 173 of 200 seconds.  Estimated final completion at 14:00:20 (in 0.000 days).                                                                                                   Time: 174 of 200 seconds.  Estimated final completion at 14:00:20 (in 0.000 days).                                                                                                   Time: 175 of 200 seconds.  Estimated final completion at 14:00:20 (in 0.000 days).                                                                                                   Time: 176 of 200 seconds.  Estimated final completion at 14:00:20 (in 0.000 days).                                                                                                   Time: 177 of 200 seconds.  Estimated final completion at 14:00:20 (in 0.000 days).                                                                                                   Time: 178 of 200 seconds.  Estimated final completion at 14:00:20 (in 0.000 days).                                                                                                   Time: 179 of 200 seconds.  Estimated final completion at 14:00:20 (in 0.000 days).                                                                                                   Time: 180 of 200 seconds.  Estimated final completion at 14:00:20 (in 0.000 days).                                                                                                   Time: 181 of 200 seconds.  Estimated final completion at 14:00:20 (in 0.000 days).                                                                                                   Time: 182 of 200 seconds.  Estimated final completion at 14:00:20 (in 0.000 days).                                                                                                   Time: 183 of 200 seconds.  Estimated final completion at 14:00:20 (in 0.000 days).                                                                                                   Time: 184 of 200 seconds.  Estimated final completion at 14:00:20 (in 0.000 days).                                                                                                   Time: 185 of 200 seconds.  Estimated final completion at 14:00:20 (in 0.000 days).                                                                                                   Time: 186 of 200 seconds.  Estimated final completion at 14:00:20 (in 0.000 days).                                                                                                   Time: 187 of 200 seconds.  Estimated final completion at 14:00:20 (in 0.000 days).                                                                                                   Time: 188 of 200 seconds.  Estimated final completion at 14:00:20 (in 0.000 days).                                                                                                   Time: 189 of 200 seconds.  Estimated final completion at 14:00:20 (in 0.000 days).                                                                                                   Time: 190 of 200 seconds.  Estimated final completion at 14:00:20 (in 0.000 days).                                                                                                   Time: 191 of 200 seconds.  Estimated final completion at 14:00:20 (in 0.000 days).                                                                                                   Time: 192 of 200 seconds.  Estimated final completion at 14:00:20 (in 0.000 days).                                                                                                   Time: 193 of 200 seconds.  Estimated final completion at 14:00:20 (in 0.000 days).                                                                                                   Time: 194 of 200 seconds.  Estimated final completion at 14:00:20 (in 0.000 days).                                                                                                   Time: 195 of 200 seconds.  Estimated final completion at 14:00:20 (in 0.000 days).                                                                                                   Time: 196 of 200 seconds.  Estimated final completion at 14:00:20 (in 0.000 days).                                                                                                   Time: 197 of 200 seconds.  Estimated final completion at 14:00:20 (in 0.000 days).                                                                                                   Time: 198 of 200 seconds.  Estimated final completion at 14:00:20 (in 0.000 days).                                                                                                   Time: 199 of 200 seconds.  Estimated final completion at 14:00:20 (in 0.000 days).                                                                                                   Time: 200 of 200 seconds.  Estimated final completion at 14:00:20 (in 0.000 days).                                                                                                  

 Total Real Time:       37.599 seconds
 Total CPU Time:        37.109 seconds
 Simulation CPU Time:   36.891 seconds
 Simulated Time:        200 seconds
 Time Ratio (Sim/CPU):  5.4214

 OpenFAST terminated normally.

